
---------- Begin Simulation Statistics ----------
final_tick                               258793560500                       # Number of ticks from beginning of simulation (restored from checkpoints and never reset)
host_inst_rate                                 165563                       # Simulator instruction rate (inst/s)
host_mem_usage                                 687168                       # Number of bytes of host memory used
host_op_rate                                   304925                       # Simulator op (including micro ops) rate (op/s)
host_seconds                                   604.00                       # Real time elapsed on the host
host_tick_rate                              428465563                       # Simulator tick rate (ticks/s)
sim_freq                                 1000000000000                       # Frequency of simulated ticks
sim_insts                                   100000000                       # Number of instructions simulated
sim_ops                                     184174857                       # Number of ops (including micro ops) simulated
sim_seconds                                  0.258794                       # Number of seconds simulated
sim_ticks                                258793560500                       # Number of ticks simulated
system.cpu.branchPred.BTBCorrect                    0                       # Number of correct BTB predictions (this stat may not work properly.
system.cpu.branchPred.BTBHitPct             99.955923                       # BTB Hit Percentage
system.cpu.branchPred.BTBHits                10560992                       # Number of BTB hits
system.cpu.branchPred.BTBLookups             10565649                       # Number of BTB lookups
system.cpu.branchPred.RASInCorrect                  5                       # Number of incorrect RAS predictions.
system.cpu.branchPred.condIncorrect              1454                       # Number of conditional branches incorrect
system.cpu.branchPred.condPredicted          10562121                       # Number of conditional branches predicted
system.cpu.branchPred.indirectHits                 30                       # Number of indirect target hits.
system.cpu.branchPred.indirectLookups             216                       # Number of indirect predictor lookups.
system.cpu.branchPred.indirectMisses              186                       # Number of indirect misses.
system.cpu.branchPred.lookups                10570345                       # Number of BP lookups
system.cpu.branchPred.usedRAS                    2723                       # Number of times the RAS was used to get a target.
system.cpu.branchPredindirectMispredicted           97                       # Number of mispredicted indirect branches.
system.cpu.committedInsts                   100000000                       # Number of instructions committed
system.cpu.committedOps                     184174857                       # Number of ops (including micro ops) committed
system.cpu.cpi                               5.175871                       # CPI: cycles per instruction
system.cpu.discardedOps                          4294                       # Number of ops (including micro ops) which were discarded before commit
system.cpu.dtb.accesses                             0                       # DTB accesses
system.cpu.dtb.align_faults                         0                       # Number of TLB faults due to alignment restrictions
system.cpu.dtb.domain_faults                        0                       # Number of TLB faults due to domain restrictions
system.cpu.dtb.flush_entries                        0                       # Number of entries that have been flushed from TLB
system.cpu.dtb.flush_tlb                            0                       # Number of times complete TLB was flushed
system.cpu.dtb.flush_tlb_asid                       0                       # Number of times TLB was flushed by ASID
system.cpu.dtb.flush_tlb_mva                        0                       # Number of times TLB was flushed by MVA
system.cpu.dtb.flush_tlb_mva_asid                   0                       # Number of times TLB was flushed by MVA & ASID
system.cpu.dtb.hits                                 0                       # DTB hits
system.cpu.dtb.inst_accesses                        0                       # ITB inst accesses
system.cpu.dtb.inst_hits                            0                       # ITB inst hits
system.cpu.dtb.inst_misses                          0                       # ITB inst misses
system.cpu.dtb.misses                               0                       # DTB misses
system.cpu.dtb.perms_faults                         0                       # Number of TLB faults due to permissions restrictions
system.cpu.dtb.prefetch_faults                      0                       # Number of TLB faults due to prefetch
system.cpu.dtb.read_accesses                        0                       # DTB read accesses
system.cpu.dtb.read_hits                            0                       # DTB read hits
system.cpu.dtb.read_misses                          0                       # DTB read misses
system.cpu.dtb.stage2_mmu.stage2_tlb.accesses            0                       # DTB accesses
system.cpu.dtb.stage2_mmu.stage2_tlb.align_faults            0                       # Number of TLB faults due to alignment restrictions
system.cpu.dtb.stage2_mmu.stage2_tlb.domain_faults            0                       # Number of TLB faults due to domain restrictions
system.cpu.dtb.stage2_mmu.stage2_tlb.flush_entries            0                       # Number of entries that have been flushed from TLB
system.cpu.dtb.stage2_mmu.stage2_tlb.flush_tlb            0                       # Number of times complete TLB was flushed
system.cpu.dtb.stage2_mmu.stage2_tlb.flush_tlb_asid            0                       # Number of times TLB was flushed by ASID
system.cpu.dtb.stage2_mmu.stage2_tlb.flush_tlb_mva            0                       # Number of times TLB was flushed by MVA
system.cpu.dtb.stage2_mmu.stage2_tlb.flush_tlb_mva_asid            0                       # Number of times TLB was flushed by MVA & ASID
system.cpu.dtb.stage2_mmu.stage2_tlb.hits            0                       # DTB hits
system.cpu.dtb.stage2_mmu.stage2_tlb.inst_accesses            0                       # ITB inst accesses
system.cpu.dtb.stage2_mmu.stage2_tlb.inst_hits            0                       # ITB inst hits
system.cpu.dtb.stage2_mmu.stage2_tlb.inst_misses            0                       # ITB inst misses
system.cpu.dtb.stage2_mmu.stage2_tlb.misses            0                       # DTB misses
system.cpu.dtb.stage2_mmu.stage2_tlb.perms_faults            0                       # Number of TLB faults due to permissions restrictions
system.cpu.dtb.stage2_mmu.stage2_tlb.prefetch_faults            0                       # Number of TLB faults due to prefetch
system.cpu.dtb.stage2_mmu.stage2_tlb.read_accesses            0                       # DTB read accesses
system.cpu.dtb.stage2_mmu.stage2_tlb.read_hits            0                       # DTB read hits
system.cpu.dtb.stage2_mmu.stage2_tlb.read_misses            0                       # DTB read misses
system.cpu.dtb.stage2_mmu.stage2_tlb.walker.walkRequestOrigin_Requested::Data            0                       # Table walker requests started/completed, data/inst
system.cpu.dtb.stage2_mmu.stage2_tlb.walker.walkRequestOrigin_Requested::Inst            0                       # Table walker requests started/completed, data/inst
system.cpu.dtb.stage2_mmu.stage2_tlb.walker.walkRequestOrigin_Requested::total            0                       # Table walker requests started/completed, data/inst
system.cpu.dtb.stage2_mmu.stage2_tlb.walker.walkRequestOrigin_Completed::Data            0                       # Table walker requests started/completed, data/inst
system.cpu.dtb.stage2_mmu.stage2_tlb.walker.walkRequestOrigin_Completed::Inst            0                       # Table walker requests started/completed, data/inst
system.cpu.dtb.stage2_mmu.stage2_tlb.walker.walkRequestOrigin_Completed::total            0                       # Table walker requests started/completed, data/inst
system.cpu.dtb.stage2_mmu.stage2_tlb.walker.walkRequestOrigin::total            0                       # Table walker requests started/completed, data/inst
system.cpu.dtb.stage2_mmu.stage2_tlb.walker.walks            0                       # Table walker walks requested
system.cpu.dtb.stage2_mmu.stage2_tlb.write_accesses            0                       # DTB write accesses
system.cpu.dtb.stage2_mmu.stage2_tlb.write_hits            0                       # DTB write hits
system.cpu.dtb.stage2_mmu.stage2_tlb.write_misses            0                       # DTB write misses
system.cpu.dtb.walker.walkRequestOrigin_Requested::Data            0                       # Table walker requests started/completed, data/inst
system.cpu.dtb.walker.walkRequestOrigin_Requested::Inst            0                       # Table walker requests started/completed, data/inst
system.cpu.dtb.walker.walkRequestOrigin_Requested::total            0                       # Table walker requests started/completed, data/inst
system.cpu.dtb.walker.walkRequestOrigin_Completed::Data            0                       # Table walker requests started/completed, data/inst
system.cpu.dtb.walker.walkRequestOrigin_Completed::Inst            0                       # Table walker requests started/completed, data/inst
system.cpu.dtb.walker.walkRequestOrigin_Completed::total            0                       # Table walker requests started/completed, data/inst
system.cpu.dtb.walker.walkRequestOrigin::total            0                       # Table walker requests started/completed, data/inst
system.cpu.dtb.walker.walks                         0                       # Table walker walks requested
system.cpu.dtb.write_accesses                       0                       # DTB write accesses
system.cpu.dtb.write_hits                           0                       # DTB write hits
system.cpu.dtb.write_misses                         0                       # DTB write misses
system.cpu.fetch2.amo_instructions                  0                       # Number of memory atomic instructions successfully decoded
system.cpu.fetch2.fp_instructions                   0                       # Number of floating point instructions successfully decoded
system.cpu.fetch2.int_instructions           44895167                       # Number of integer instructions successfully decoded
system.cpu.fetch2.load_instructions           2086476                       # Number of memory load instructions successfully decoded
system.cpu.fetch2.store_instructions           169151                       # Number of memory store instructions successfully decoded
system.cpu.fetch2.vec_instructions                  0                       # Number of SIMD instructions successfully decoded
system.cpu.idleCycles                       300331500                       # Total number of cycles that the object has spent stopped
system.cpu.ipc                               0.193204                       # IPC: instructions per cycle
system.cpu.itb.accesses                             0                       # DTB accesses
system.cpu.itb.align_faults                         0                       # Number of TLB faults due to alignment restrictions
system.cpu.itb.domain_faults                        0                       # Number of TLB faults due to domain restrictions
system.cpu.itb.flush_entries                        0                       # Number of entries that have been flushed from TLB
system.cpu.itb.flush_tlb                            0                       # Number of times complete TLB was flushed
system.cpu.itb.flush_tlb_asid                       0                       # Number of times TLB was flushed by ASID
system.cpu.itb.flush_tlb_mva                        0                       # Number of times TLB was flushed by MVA
system.cpu.itb.flush_tlb_mva_asid                   0                       # Number of times TLB was flushed by MVA & ASID
system.cpu.itb.hits                                 0                       # DTB hits
system.cpu.itb.inst_accesses                        0                       # ITB inst accesses
system.cpu.itb.inst_hits                            0                       # ITB inst hits
system.cpu.itb.inst_misses                          0                       # ITB inst misses
system.cpu.itb.misses                               0                       # DTB misses
system.cpu.itb.perms_faults                         0                       # Number of TLB faults due to permissions restrictions
system.cpu.itb.prefetch_faults                      0                       # Number of TLB faults due to prefetch
system.cpu.itb.read_accesses                        0                       # DTB read accesses
system.cpu.itb.read_hits                            0                       # DTB read hits
system.cpu.itb.read_misses                          0                       # DTB read misses
system.cpu.itb.stage2_mmu.stage2_tlb.accesses            0                       # DTB accesses
system.cpu.itb.stage2_mmu.stage2_tlb.align_faults            0                       # Number of TLB faults due to alignment restrictions
system.cpu.itb.stage2_mmu.stage2_tlb.domain_faults            0                       # Number of TLB faults due to domain restrictions
system.cpu.itb.stage2_mmu.stage2_tlb.flush_entries            0                       # Number of entries that have been flushed from TLB
system.cpu.itb.stage2_mmu.stage2_tlb.flush_tlb            0                       # Number of times complete TLB was flushed
system.cpu.itb.stage2_mmu.stage2_tlb.flush_tlb_asid            0                       # Number of times TLB was flushed by ASID
system.cpu.itb.stage2_mmu.stage2_tlb.flush_tlb_mva            0                       # Number of times TLB was flushed by MVA
system.cpu.itb.stage2_mmu.stage2_tlb.flush_tlb_mva_asid            0                       # Number of times TLB was flushed by MVA & ASID
system.cpu.itb.stage2_mmu.stage2_tlb.hits            0                       # DTB hits
system.cpu.itb.stage2_mmu.stage2_tlb.inst_accesses            0                       # ITB inst accesses
system.cpu.itb.stage2_mmu.stage2_tlb.inst_hits            0                       # ITB inst hits
system.cpu.itb.stage2_mmu.stage2_tlb.inst_misses            0                       # ITB inst misses
system.cpu.itb.stage2_mmu.stage2_tlb.misses            0                       # DTB misses
system.cpu.itb.stage2_mmu.stage2_tlb.perms_faults            0                       # Number of TLB faults due to permissions restrictions
system.cpu.itb.stage2_mmu.stage2_tlb.prefetch_faults            0                       # Number of TLB faults due to prefetch
system.cpu.itb.stage2_mmu.stage2_tlb.read_accesses            0                       # DTB read accesses
system.cpu.itb.stage2_mmu.stage2_tlb.read_hits            0                       # DTB read hits
system.cpu.itb.stage2_mmu.stage2_tlb.read_misses            0                       # DTB read misses
system.cpu.itb.stage2_mmu.stage2_tlb.walker.walkRequestOrigin_Requested::Data            0                       # Table walker requests started/completed, data/inst
system.cpu.itb.stage2_mmu.stage2_tlb.walker.walkRequestOrigin_Requested::Inst            0                       # Table walker requests started/completed, data/inst
system.cpu.itb.stage2_mmu.stage2_tlb.walker.walkRequestOrigin_Requested::total            0                       # Table walker requests started/completed, data/inst
system.cpu.itb.stage2_mmu.stage2_tlb.walker.walkRequestOrigin_Completed::Data            0                       # Table walker requests started/completed, data/inst
system.cpu.itb.stage2_mmu.stage2_tlb.walker.walkRequestOrigin_Completed::Inst            0                       # Table walker requests started/completed, data/inst
system.cpu.itb.stage2_mmu.stage2_tlb.walker.walkRequestOrigin_Completed::total            0                       # Table walker requests started/completed, data/inst
system.cpu.itb.stage2_mmu.stage2_tlb.walker.walkRequestOrigin::total            0                       # Table walker requests started/completed, data/inst
system.cpu.itb.stage2_mmu.stage2_tlb.walker.walks            0                       # Table walker walks requested
system.cpu.itb.stage2_mmu.stage2_tlb.write_accesses            0                       # DTB write accesses
system.cpu.itb.stage2_mmu.stage2_tlb.write_hits            0                       # DTB write hits
system.cpu.itb.stage2_mmu.stage2_tlb.write_misses            0                       # DTB write misses
system.cpu.itb.walker.walkRequestOrigin_Requested::Data            0                       # Table walker requests started/completed, data/inst
system.cpu.itb.walker.walkRequestOrigin_Requested::Inst            0                       # Table walker requests started/completed, data/inst
system.cpu.itb.walker.walkRequestOrigin_Requested::total            0                       # Table walker requests started/completed, data/inst
system.cpu.itb.walker.walkRequestOrigin_Completed::Data            0                       # Table walker requests started/completed, data/inst
system.cpu.itb.walker.walkRequestOrigin_Completed::Inst            0                       # Table walker requests started/completed, data/inst
system.cpu.itb.walker.walkRequestOrigin_Completed::total            0                       # Table walker requests started/completed, data/inst
system.cpu.itb.walker.walkRequestOrigin::total            0                       # Table walker requests started/completed, data/inst
system.cpu.itb.walker.walks                         0                       # Table walker walks requested
system.cpu.itb.write_accesses                       0                       # DTB write accesses
system.cpu.itb.write_hits                           0                       # DTB write hits
system.cpu.itb.write_misses                         0                       # DTB write misses
system.cpu.numCycles                        517587121                       # number of cpu cycles simulated
system.cpu.numFetchSuspends                         0                       # Number of times Execute suspended instruction fetching
system.cpu.numWorkItemsCompleted                    0                       # number of work items this cpu completed
system.cpu.numWorkItemsStarted                      0                       # number of work items this cpu started
system.cpu.op_class_0::No_OpClass                   0      0.00%      0.00% # Class of committed instruction
system.cpu.op_class_0::IntAlu                97640483     53.02%     53.02% # Class of committed instruction
system.cpu.op_class_0::IntMult                 114699      0.06%     53.08% # Class of committed instruction
system.cpu.op_class_0::IntDiv                       0      0.00%     53.08% # Class of committed instruction
system.cpu.op_class_0::FloatAdd                     0      0.00%     53.08% # Class of committed instruction
system.cpu.op_class_0::FloatCmp                     0      0.00%     53.08% # Class of committed instruction
system.cpu.op_class_0::FloatCvt                     0      0.00%     53.08% # Class of committed instruction
system.cpu.op_class_0::FloatMult                    0      0.00%     53.08% # Class of committed instruction
system.cpu.op_class_0::FloatMultAcc                 0      0.00%     53.08% # Class of committed instruction
system.cpu.op_class_0::FloatDiv                     0      0.00%     53.08% # Class of committed instruction
system.cpu.op_class_0::FloatMisc                    0      0.00%     53.08% # Class of committed instruction
system.cpu.op_class_0::FloatSqrt                    0      0.00%     53.08% # Class of committed instruction
system.cpu.op_class_0::SimdAdd                      8      0.00%     53.08% # Class of committed instruction
system.cpu.op_class_0::SimdAddAcc                   0      0.00%     53.08% # Class of committed instruction
system.cpu.op_class_0::SimdAlu                      8      0.00%     53.08% # Class of committed instruction
system.cpu.op_class_0::SimdCmp                      6      0.00%     53.08% # Class of committed instruction
system.cpu.op_class_0::SimdCvt                      0      0.00%     53.08% # Class of committed instruction
system.cpu.op_class_0::SimdMisc                     1      0.00%     53.08% # Class of committed instruction
system.cpu.op_class_0::SimdMult                     0      0.00%     53.08% # Class of committed instruction
system.cpu.op_class_0::SimdMultAcc                  0      0.00%     53.08% # Class of committed instruction
system.cpu.op_class_0::SimdShift                    0      0.00%     53.08% # Class of committed instruction
system.cpu.op_class_0::SimdShiftAcc                 0      0.00%     53.08% # Class of committed instruction
system.cpu.op_class_0::SimdDiv                      0      0.00%     53.08% # Class of committed instruction
system.cpu.op_class_0::SimdSqrt                     0      0.00%     53.08% # Class of committed instruction
system.cpu.op_class_0::SimdFloatAdd                 0      0.00%     53.08% # Class of committed instruction
system.cpu.op_class_0::SimdFloatAlu                 0      0.00%     53.08% # Class of committed instruction
system.cpu.op_class_0::SimdFloatCmp                 0      0.00%     53.08% # Class of committed instruction
system.cpu.op_class_0::SimdFloatCvt                 0      0.00%     53.08% # Class of committed instruction
system.cpu.op_class_0::SimdFloatDiv                 0      0.00%     53.08% # Class of committed instruction
system.cpu.op_class_0::SimdFloatMisc               23      0.00%     53.08% # Class of committed instruction
system.cpu.op_class_0::SimdFloatMult                0      0.00%     53.08% # Class of committed instruction
system.cpu.op_class_0::SimdFloatMultAcc             0      0.00%     53.08% # Class of committed instruction
system.cpu.op_class_0::SimdFloatSqrt                0      0.00%     53.08% # Class of committed instruction
system.cpu.op_class_0::SimdReduceAdd                0      0.00%     53.08% # Class of committed instruction
system.cpu.op_class_0::SimdReduceAlu                0      0.00%     53.08% # Class of committed instruction
system.cpu.op_class_0::SimdReduceCmp                0      0.00%     53.08% # Class of committed instruction
system.cpu.op_class_0::SimdFloatReduceAdd            0      0.00%     53.08% # Class of committed instruction
system.cpu.op_class_0::SimdFloatReduceCmp            0      0.00%     53.08% # Class of committed instruction
system.cpu.op_class_0::SimdAes                      0      0.00%     53.08% # Class of committed instruction
system.cpu.op_class_0::SimdAesMix                   0      0.00%     53.08% # Class of committed instruction
system.cpu.op_class_0::SimdSha1Hash                 0      0.00%     53.08% # Class of committed instruction
system.cpu.op_class_0::SimdSha1Hash2                0      0.00%     53.08% # Class of committed instruction
system.cpu.op_class_0::SimdSha256Hash               0      0.00%     53.08% # Class of committed instruction
system.cpu.op_class_0::SimdSha256Hash2              0      0.00%     53.08% # Class of committed instruction
system.cpu.op_class_0::SimdShaSigma2                0      0.00%     53.08% # Class of committed instruction
system.cpu.op_class_0::SimdShaSigma3                0      0.00%     53.08% # Class of committed instruction
system.cpu.op_class_0::SimdPredAlu                  0      0.00%     53.08% # Class of committed instruction
system.cpu.op_class_0::MemRead                2082677      1.13%     54.21% # Class of committed instruction
system.cpu.op_class_0::MemWrite              84336952     45.79%    100.00% # Class of committed instruction
system.cpu.op_class_0::FloatMemRead                 0      0.00%    100.00% # Class of committed instruction
system.cpu.op_class_0::FloatMemWrite                0      0.00%    100.00% # Class of committed instruction
system.cpu.op_class_0::IprAccess                    0      0.00%    100.00% # Class of committed instruction
system.cpu.op_class_0::InstPrefetch                 0      0.00%    100.00% # Class of committed instruction
system.cpu.op_class_0::total                184174857                       # Class of committed instruction
system.cpu.tickCycles                       217255621                       # Number of cycles that the object actually ticked
system.cpu.workload.numSyscalls                    18                       # Number of system calls
system.membus.snoop_filter.hit_multi_requests            0                       # Number of requests hitting in the snoop filter with multiple (>1) holders of the requested data.
system.membus.snoop_filter.hit_multi_snoops            0                       # Number of snoops hitting in the snoop filter with multiple (>1) holders of the requested data.
system.membus.snoop_filter.hit_single_requests      1307993                       # Number of requests hitting in the snoop filter with a single holder of the requested data.
system.membus.snoop_filter.hit_single_snoops            0                       # Number of snoops hitting in the snoop filter with a single holder of the requested data.
system.membus.snoop_filter.tot_requests       2624284                       # Total number of requests made to the snoop filter.
system.membus.snoop_filter.tot_snoops               0                       # Total number of snoops made to the snoop filter.
system.tol2bus.snoop_filter.hit_multi_requests           58                       # Number of requests hitting in the snoop filter with multiple (>1) holders of the requested data.
system.tol2bus.snoop_filter.hit_multi_snoops            0                       # Number of snoops hitting in the snoop filter with multiple (>1) holders of the requested data.
system.tol2bus.snoop_filter.hit_single_requests      1317086                       # Number of requests hitting in the snoop filter with a single holder of the requested data.
system.tol2bus.snoop_filter.hit_single_snoops          181                       # Number of snoops hitting in the snoop filter with a single holder of the requested data.
system.tol2bus.snoop_filter.tot_requests      2634541                       # Total number of requests made to the snoop filter.
system.tol2bus.snoop_filter.tot_snoops            181                       # Total number of snoops made to the snoop filter.
system.membus.pwrStateResidencyTicks::UNDEFINED 258793560500                       # Cumulative time (in ticks) in various power states
system.membus.trans_dist::ReadResp                421                       # Transaction distribution
system.membus.trans_dist::WritebackDirty      1307705                       # Transaction distribution
system.membus.trans_dist::CleanEvict              281                       # Transaction distribution
system.membus.trans_dist::ReadExReq           1315877                       # Transaction distribution
system.membus.trans_dist::ReadExResp          1315877                       # Transaction distribution
system.membus.trans_dist::ReadSharedReq           421                       # Transaction distribution
system.membus.pkt_count_system.l2.mem_side::system.mem_ctrls.port      3940582                       # Packet count per connected master and slave (bytes)
system.membus.pkt_count::total                3940582                       # Packet count per connected master and slave (bytes)
system.membus.pkt_size_system.l2.mem_side::system.mem_ctrls.port    671744768                       # Cumulative packet size per connected master and slave (bytes)
system.membus.pkt_size::total               671744768                       # Cumulative packet size per connected master and slave (bytes)
system.membus.snoops                                0                       # Total snoops (count)
system.membus.snoopTraffic                          0                       # Total snoop traffic (bytes)
system.membus.snoop_fanout::samples           1316298                       # Request fanout histogram
system.membus.snoop_fanout::mean                    0                       # Request fanout histogram
system.membus.snoop_fanout::stdev                   0                       # Request fanout histogram
system.membus.snoop_fanout::underflows              0      0.00%      0.00% # Request fanout histogram
system.membus.snoop_fanout::0                 1316298    100.00%    100.00% # Request fanout histogram
system.membus.snoop_fanout::1                       0      0.00%    100.00% # Request fanout histogram
system.membus.snoop_fanout::overflows               0      0.00%    100.00% # Request fanout histogram
system.membus.snoop_fanout::min_value               0                       # Request fanout histogram
system.membus.snoop_fanout::max_value               0                       # Request fanout histogram
system.membus.snoop_fanout::total             1316298                       # Request fanout histogram
system.membus.respLayer1.occupancy        22744632750                       # Layer occupancy (ticks)
system.membus.respLayer1.utilization              8.8                       # Layer utilization (%)
system.membus.reqLayer0.occupancy         23547812000                       # Layer occupancy (ticks)
system.membus.reqLayer0.utilization               9.1                       # Layer utilization (%)
system.tol2bus.pwrStateResidencyTicks::UNDEFINED 258793560500                       # Cumulative time (in ticks) in various power states
system.tol2bus.trans_dist::ReadResp              1092                       # Transaction distribution
system.tol2bus.trans_dist::WritebackDirty      2623844                       # Transaction distribution
system.tol2bus.trans_dist::WritebackClean          306                       # Transaction distribution
system.tol2bus.trans_dist::CleanEvict            1103                       # Transaction distribution
system.tol2bus.trans_dist::ReadExReq          1316363                       # Transaction distribution
system.tol2bus.trans_dist::ReadExResp         1316363                       # Transaction distribution
system.tol2bus.trans_dist::ReadCleanReq           419                       # Transaction distribution
system.tol2bus.trans_dist::ReadSharedReq          673                       # Transaction distribution
system.tol2bus.pkt_count_system.cpu.icache.mem_side::system.l2.cpu_side         1144                       # Packet count per connected master and slave (bytes)
system.tol2bus.pkt_count_system.cpu.dcache.mem_side::system.l2.cpu_side      3950852                       # Packet count per connected master and slave (bytes)
system.tol2bus.pkt_count::total               3951996                       # Packet count per connected master and slave (bytes)
system.tol2bus.pkt_size_system.cpu.icache.mem_side::system.l2.cpu_side       185600                       # Cumulative packet size per connected master and slave (bytes)
system.tol2bus.pkt_size_system.cpu.dcache.mem_side::system.l2.cpu_side    674092800                       # Cumulative packet size per connected master and slave (bytes)
system.tol2bus.pkt_size::total              674278400                       # Cumulative packet size per connected master and slave (bytes)
system.tol2bus.snoops                         1308167                       # Total snoops (count)
system.tol2bus.snoopTraffic                 334772480                       # Total snoop traffic (bytes)
system.tol2bus.snoop_fanout::samples          2625622                       # Request fanout histogram
system.tol2bus.snoop_fanout::mean            0.000091                       # Request fanout histogram
system.tol2bus.snoop_fanout::stdev           0.009540                       # Request fanout histogram
system.tol2bus.snoop_fanout::underflows             0      0.00%      0.00% # Request fanout histogram
system.tol2bus.snoop_fanout::0                2625383     99.99%     99.99% # Request fanout histogram
system.tol2bus.snoop_fanout::1                    239      0.01%    100.00% # Request fanout histogram
system.tol2bus.snoop_fanout::2                      0      0.00%    100.00% # Request fanout histogram
system.tol2bus.snoop_fanout::overflows              0      0.00%    100.00% # Request fanout histogram
system.tol2bus.snoop_fanout::min_value              0                       # Request fanout histogram
system.tol2bus.snoop_fanout::max_value              1                       # Request fanout histogram
system.tol2bus.snoop_fanout::total            2625622                       # Request fanout histogram
system.tol2bus.reqLayer0.occupancy         6583050500                       # Layer occupancy (ticks)
system.tol2bus.reqLayer0.utilization              2.5                       # Layer utilization (%)
system.tol2bus.respLayer1.occupancy        5926665493                       # Layer occupancy (ticks)
system.tol2bus.respLayer1.utilization             2.3                       # Layer utilization (%)
system.tol2bus.respLayer0.occupancy           1885999                       # Layer occupancy (ticks)
system.tol2bus.respLayer0.utilization             0.0                       # Layer utilization (%)
system.voltage_domain.voltage                       1                       # Voltage in Volts
system.clk_domain.clock                          1000                       # Clock period in ticks
system.l2.pwrStateResidencyTicks::UNDEFINED 258793560500                       # Cumulative time (in ticks) in various power states
system.l2.demand_hits::.cpu.inst                  144                       # number of demand (read+write) hits
system.l2.demand_hits::.cpu.data                 1005                       # number of demand (read+write) hits
system.l2.demand_hits::total                     1149                       # number of demand (read+write) hits
system.l2.overall_hits::.cpu.inst                 144                       # number of overall hits
system.l2.overall_hits::.cpu.data                1005                       # number of overall hits
system.l2.overall_hits::total                    1149                       # number of overall hits
system.l2.demand_misses::.cpu.inst                275                       # number of demand (read+write) misses
system.l2.demand_misses::.cpu.data            1316031                       # number of demand (read+write) misses
system.l2.demand_misses::total                1316306                       # number of demand (read+write) misses
system.l2.overall_misses::.cpu.inst               275                       # number of overall misses
system.l2.overall_misses::.cpu.data           1316031                       # number of overall misses
system.l2.overall_misses::total               1316306                       # number of overall misses
system.l2.demand_miss_latency::.cpu.inst     28626000                       # number of demand (read+write) miss cycles
system.l2.demand_miss_latency::.cpu.data 155290064000                       # number of demand (read+write) miss cycles
system.l2.demand_miss_latency::total     155318690000                       # number of demand (read+write) miss cycles
system.l2.overall_miss_latency::.cpu.inst     28626000                       # number of overall miss cycles
system.l2.overall_miss_latency::.cpu.data 155290064000                       # number of overall miss cycles
system.l2.overall_miss_latency::total    155318690000                       # number of overall miss cycles
system.l2.demand_accesses::.cpu.inst              419                       # number of demand (read+write) accesses
system.l2.demand_accesses::.cpu.data          1317036                       # number of demand (read+write) accesses
system.l2.demand_accesses::total              1317455                       # number of demand (read+write) accesses
system.l2.overall_accesses::.cpu.inst             419                       # number of overall (read+write) accesses
system.l2.overall_accesses::.cpu.data         1317036                       # number of overall (read+write) accesses
system.l2.overall_accesses::total             1317455                       # number of overall (read+write) accesses
system.l2.demand_miss_rate::.cpu.inst        0.656325                       # miss rate for demand accesses
system.l2.demand_miss_rate::.cpu.data        0.999237                       # miss rate for demand accesses
system.l2.demand_miss_rate::total            0.999128                       # miss rate for demand accesses
system.l2.overall_miss_rate::.cpu.inst       0.656325                       # miss rate for overall accesses
system.l2.overall_miss_rate::.cpu.data       0.999237                       # miss rate for overall accesses
system.l2.overall_miss_rate::total           0.999128                       # miss rate for overall accesses
system.l2.demand_avg_miss_latency::.cpu.inst 104094.545455                       # average overall miss latency
system.l2.demand_avg_miss_latency::.cpu.data 117998.788782                       # average overall miss latency
system.l2.demand_avg_miss_latency::total 117995.883936                       # average overall miss latency
system.l2.overall_avg_miss_latency::.cpu.inst 104094.545455                       # average overall miss latency
system.l2.overall_avg_miss_latency::.cpu.data 117998.788782                       # average overall miss latency
system.l2.overall_avg_miss_latency::total 117995.883936                       # average overall miss latency
system.l2.blocked_cycles::no_mshrs                  0                       # number of cycles access was blocked
system.l2.blocked_cycles::no_targets                0                       # number of cycles access was blocked
system.l2.blocked::no_mshrs                         0                       # number of cycles access was blocked
system.l2.blocked::no_targets                       0                       # number of cycles access was blocked
system.l2.avg_blocked_cycles::no_mshrs            nan                       # average number of cycles each access was blocked
system.l2.avg_blocked_cycles::no_targets          nan                       # average number of cycles each access was blocked
system.l2.writebacks::.writebacks             1307705                       # number of writebacks
system.l2.writebacks::total                   1307705                       # number of writebacks
system.l2.demand_mshr_hits::.cpu.inst               1                       # number of demand (read+write) MSHR hits
system.l2.demand_mshr_hits::.cpu.data               7                       # number of demand (read+write) MSHR hits
system.l2.demand_mshr_hits::total                   8                       # number of demand (read+write) MSHR hits
system.l2.overall_mshr_hits::.cpu.inst              1                       # number of overall MSHR hits
system.l2.overall_mshr_hits::.cpu.data              7                       # number of overall MSHR hits
system.l2.overall_mshr_hits::total                  8                       # number of overall MSHR hits
system.l2.demand_mshr_misses::.cpu.inst           274                       # number of demand (read+write) MSHR misses
system.l2.demand_mshr_misses::.cpu.data       1316024                       # number of demand (read+write) MSHR misses
system.l2.demand_mshr_misses::total           1316298                       # number of demand (read+write) MSHR misses
system.l2.overall_mshr_misses::.cpu.inst          274                       # number of overall MSHR misses
system.l2.overall_mshr_misses::.cpu.data      1316024                       # number of overall MSHR misses
system.l2.overall_mshr_misses::total          1316298                       # number of overall MSHR misses
system.l2.demand_mshr_miss_latency::.cpu.inst     25698500                       # number of demand (read+write) MSHR miss cycles
system.l2.demand_mshr_miss_latency::.cpu.data 142129182000                       # number of demand (read+write) MSHR miss cycles
system.l2.demand_mshr_miss_latency::total 142154880500                       # number of demand (read+write) MSHR miss cycles
system.l2.overall_mshr_miss_latency::.cpu.inst     25698500                       # number of overall MSHR miss cycles
system.l2.overall_mshr_miss_latency::.cpu.data 142129182000                       # number of overall MSHR miss cycles
system.l2.overall_mshr_miss_latency::total 142154880500                       # number of overall MSHR miss cycles
system.l2.demand_mshr_miss_rate::.cpu.inst     0.653938                       # mshr miss rate for demand accesses
system.l2.demand_mshr_miss_rate::.cpu.data     0.999232                       # mshr miss rate for demand accesses
system.l2.demand_mshr_miss_rate::total       0.999122                       # mshr miss rate for demand accesses
system.l2.overall_mshr_miss_rate::.cpu.inst     0.653938                       # mshr miss rate for overall accesses
system.l2.overall_mshr_miss_rate::.cpu.data     0.999232                       # mshr miss rate for overall accesses
system.l2.overall_mshr_miss_rate::total      0.999122                       # mshr miss rate for overall accesses
system.l2.demand_avg_mshr_miss_latency::.cpu.inst 93790.145985                       # average overall mshr miss latency
system.l2.demand_avg_mshr_miss_latency::.cpu.data 107998.928591                       # average overall mshr miss latency
system.l2.demand_avg_mshr_miss_latency::total 107995.970897                       # average overall mshr miss latency
system.l2.overall_avg_mshr_miss_latency::.cpu.inst 93790.145985                       # average overall mshr miss latency
system.l2.overall_avg_mshr_miss_latency::.cpu.data 107998.928591                       # average overall mshr miss latency
system.l2.overall_avg_mshr_miss_latency::total 107995.970897                       # average overall mshr miss latency
system.l2.replacements                        1308167                       # number of replacements
system.l2.WritebackDirty_hits::.writebacks      1316139                       # number of WritebackDirty hits
system.l2.WritebackDirty_hits::total          1316139                       # number of WritebackDirty hits
system.l2.WritebackDirty_accesses::.writebacks      1316139                       # number of WritebackDirty accesses(hits+misses)
system.l2.WritebackDirty_accesses::total      1316139                       # number of WritebackDirty accesses(hits+misses)
system.l2.WritebackClean_hits::.writebacks          284                       # number of WritebackClean hits
system.l2.WritebackClean_hits::total              284                       # number of WritebackClean hits
system.l2.WritebackClean_accesses::.writebacks          284                       # number of WritebackClean accesses(hits+misses)
system.l2.WritebackClean_accesses::total          284                       # number of WritebackClean accesses(hits+misses)
system.l2.ReadExReq_hits::.cpu.data               486                       # number of ReadExReq hits
system.l2.ReadExReq_hits::total                   486                       # number of ReadExReq hits
system.l2.ReadExReq_misses::.cpu.data         1315877                       # number of ReadExReq misses
system.l2.ReadExReq_misses::total             1315877                       # number of ReadExReq misses
system.l2.ReadExReq_miss_latency::.cpu.data 155272478000                       # number of ReadExReq miss cycles
system.l2.ReadExReq_miss_latency::total  155272478000                       # number of ReadExReq miss cycles
system.l2.ReadExReq_accesses::.cpu.data       1316363                       # number of ReadExReq accesses(hits+misses)
system.l2.ReadExReq_accesses::total           1316363                       # number of ReadExReq accesses(hits+misses)
system.l2.ReadExReq_miss_rate::.cpu.data     0.999631                       # miss rate for ReadExReq accesses
system.l2.ReadExReq_miss_rate::total         0.999631                       # miss rate for ReadExReq accesses
system.l2.ReadExReq_avg_miss_latency::.cpu.data 117999.233971                       # average ReadExReq miss latency
system.l2.ReadExReq_avg_miss_latency::total 117999.233971                       # average ReadExReq miss latency
system.l2.ReadExReq_mshr_misses::.cpu.data      1315877                       # number of ReadExReq MSHR misses
system.l2.ReadExReq_mshr_misses::total        1315877                       # number of ReadExReq MSHR misses
system.l2.ReadExReq_mshr_miss_latency::.cpu.data 142113708000                       # number of ReadExReq MSHR miss cycles
system.l2.ReadExReq_mshr_miss_latency::total 142113708000                       # number of ReadExReq MSHR miss cycles
system.l2.ReadExReq_mshr_miss_rate::.cpu.data     0.999631                       # mshr miss rate for ReadExReq accesses
system.l2.ReadExReq_mshr_miss_rate::total     0.999631                       # mshr miss rate for ReadExReq accesses
system.l2.ReadExReq_avg_mshr_miss_latency::.cpu.data 107999.233971                       # average ReadExReq mshr miss latency
system.l2.ReadExReq_avg_mshr_miss_latency::total 107999.233971                       # average ReadExReq mshr miss latency
system.l2.ReadCleanReq_hits::.cpu.inst            144                       # number of ReadCleanReq hits
system.l2.ReadCleanReq_hits::total                144                       # number of ReadCleanReq hits
system.l2.ReadCleanReq_misses::.cpu.inst          275                       # number of ReadCleanReq misses
system.l2.ReadCleanReq_misses::total              275                       # number of ReadCleanReq misses
system.l2.ReadCleanReq_miss_latency::.cpu.inst     28626000                       # number of ReadCleanReq miss cycles
system.l2.ReadCleanReq_miss_latency::total     28626000                       # number of ReadCleanReq miss cycles
system.l2.ReadCleanReq_accesses::.cpu.inst          419                       # number of ReadCleanReq accesses(hits+misses)
system.l2.ReadCleanReq_accesses::total            419                       # number of ReadCleanReq accesses(hits+misses)
system.l2.ReadCleanReq_miss_rate::.cpu.inst     0.656325                       # miss rate for ReadCleanReq accesses
system.l2.ReadCleanReq_miss_rate::total      0.656325                       # miss rate for ReadCleanReq accesses
system.l2.ReadCleanReq_avg_miss_latency::.cpu.inst 104094.545455                       # average ReadCleanReq miss latency
system.l2.ReadCleanReq_avg_miss_latency::total 104094.545455                       # average ReadCleanReq miss latency
system.l2.ReadCleanReq_mshr_hits::.cpu.inst            1                       # number of ReadCleanReq MSHR hits
system.l2.ReadCleanReq_mshr_hits::total             1                       # number of ReadCleanReq MSHR hits
system.l2.ReadCleanReq_mshr_misses::.cpu.inst          274                       # number of ReadCleanReq MSHR misses
system.l2.ReadCleanReq_mshr_misses::total          274                       # number of ReadCleanReq MSHR misses
system.l2.ReadCleanReq_mshr_miss_latency::.cpu.inst     25698500                       # number of ReadCleanReq MSHR miss cycles
system.l2.ReadCleanReq_mshr_miss_latency::total     25698500                       # number of ReadCleanReq MSHR miss cycles
system.l2.ReadCleanReq_mshr_miss_rate::.cpu.inst     0.653938                       # mshr miss rate for ReadCleanReq accesses
system.l2.ReadCleanReq_mshr_miss_rate::total     0.653938                       # mshr miss rate for ReadCleanReq accesses
system.l2.ReadCleanReq_avg_mshr_miss_latency::.cpu.inst 93790.145985                       # average ReadCleanReq mshr miss latency
system.l2.ReadCleanReq_avg_mshr_miss_latency::total 93790.145985                       # average ReadCleanReq mshr miss latency
system.l2.ReadSharedReq_hits::.cpu.data           519                       # number of ReadSharedReq hits
system.l2.ReadSharedReq_hits::total               519                       # number of ReadSharedReq hits
system.l2.ReadSharedReq_misses::.cpu.data          154                       # number of ReadSharedReq misses
system.l2.ReadSharedReq_misses::total             154                       # number of ReadSharedReq misses
system.l2.ReadSharedReq_miss_latency::.cpu.data     17586000                       # number of ReadSharedReq miss cycles
system.l2.ReadSharedReq_miss_latency::total     17586000                       # number of ReadSharedReq miss cycles
system.l2.ReadSharedReq_accesses::.cpu.data          673                       # number of ReadSharedReq accesses(hits+misses)
system.l2.ReadSharedReq_accesses::total           673                       # number of ReadSharedReq accesses(hits+misses)
system.l2.ReadSharedReq_miss_rate::.cpu.data     0.228826                       # miss rate for ReadSharedReq accesses
system.l2.ReadSharedReq_miss_rate::total     0.228826                       # miss rate for ReadSharedReq accesses
system.l2.ReadSharedReq_avg_miss_latency::.cpu.data 114194.805195                       # average ReadSharedReq miss latency
system.l2.ReadSharedReq_avg_miss_latency::total 114194.805195                       # average ReadSharedReq miss latency
system.l2.ReadSharedReq_mshr_hits::.cpu.data            7                       # number of ReadSharedReq MSHR hits
system.l2.ReadSharedReq_mshr_hits::total            7                       # number of ReadSharedReq MSHR hits
system.l2.ReadSharedReq_mshr_misses::.cpu.data          147                       # number of ReadSharedReq MSHR misses
system.l2.ReadSharedReq_mshr_misses::total          147                       # number of ReadSharedReq MSHR misses
system.l2.ReadSharedReq_mshr_miss_latency::.cpu.data     15474000                       # number of ReadSharedReq MSHR miss cycles
system.l2.ReadSharedReq_mshr_miss_latency::total     15474000                       # number of ReadSharedReq MSHR miss cycles
system.l2.ReadSharedReq_mshr_miss_rate::.cpu.data     0.218425                       # mshr miss rate for ReadSharedReq accesses
system.l2.ReadSharedReq_mshr_miss_rate::total     0.218425                       # mshr miss rate for ReadSharedReq accesses
system.l2.ReadSharedReq_avg_mshr_miss_latency::.cpu.data 105265.306122                       # average ReadSharedReq mshr miss latency
system.l2.ReadSharedReq_avg_mshr_miss_latency::total 105265.306122                       # average ReadSharedReq mshr miss latency
system.l2.tags.pwrStateResidencyTicks::UNDEFINED 258793560500                       # Cumulative time (in ticks) in various power states
system.l2.tags.tagsinuse                  8089.850439                       # Cycle average of tags in use
system.l2.tags.total_refs                     2634475                       # Total number of references to valid blocks.
system.l2.tags.sampled_refs                   1316359                       # Sample count of references to valid blocks.
system.l2.tags.avg_refs                      2.001335                       # Average number of references to valid blocks.
system.l2.tags.warmup_cycle                     92000                       # Cycle when the warmup percentage was hit.
system.l2.tags.occ_blocks::.writebacks       0.339585                       # Average occupied blocks per requestor
system.l2.tags.occ_blocks::.cpu.inst         3.282248                       # Average occupied blocks per requestor
system.l2.tags.occ_blocks::.cpu.data      8086.228606                       # Average occupied blocks per requestor
system.l2.tags.occ_percent::.writebacks      0.000041                       # Average percentage of cache occupancy
system.l2.tags.occ_percent::.cpu.inst        0.000401                       # Average percentage of cache occupancy
system.l2.tags.occ_percent::.cpu.data        0.987088                       # Average percentage of cache occupancy
system.l2.tags.occ_percent::total            0.987531                       # Average percentage of cache occupancy
system.l2.tags.occ_task_id_blocks::1024          8192                       # Occupied blocks per task id
system.l2.tags.age_task_id_blocks_1024::0           51                       # Occupied blocks per task id
system.l2.tags.age_task_id_blocks_1024::1          463                       # Occupied blocks per task id
system.l2.tags.age_task_id_blocks_1024::2         4623                       # Occupied blocks per task id
system.l2.tags.age_task_id_blocks_1024::3         3055                       # Occupied blocks per task id
system.l2.tags.occ_task_id_percent::1024            1                       # Percentage of cache occupancy per task id
system.l2.tags.tag_accesses                  22392223                       # Number of tag accesses
system.l2.tags.data_accesses                 22392223                       # Number of data accesses
system.cpu_voltage_domain.voltage                   1                       # Voltage in Volts
system.mem_ctrls.pwrStateResidencyTicks::UNDEFINED 258793560500                       # Cumulative time (in ticks) in various power states
system.mem_ctrls.bytes_read::.cpu.inst          70144                       # Number of bytes read from this memory
system.mem_ctrls.bytes_read::.cpu.data      336902144                       # Number of bytes read from this memory
system.mem_ctrls.bytes_read::total          336972288                       # Number of bytes read from this memory
system.mem_ctrls.bytes_inst_read::.cpu.inst        70144                       # Number of instructions bytes read from this memory
system.mem_ctrls.bytes_inst_read::total         70144                       # Number of instructions bytes read from this memory
system.mem_ctrls.bytes_written::.writebacks    334772480                       # Number of bytes written to this memory
system.mem_ctrls.bytes_written::total       334772480                       # Number of bytes written to this memory
system.mem_ctrls.num_reads::.cpu.inst             274                       # Number of read requests responded to by this memory
system.mem_ctrls.num_reads::.cpu.data         1316024                       # Number of read requests responded to by this memory
system.mem_ctrls.num_reads::total             1316298                       # Number of read requests responded to by this memory
system.mem_ctrls.num_writes::.writebacks      1307705                       # Number of write requests responded to by this memory
system.mem_ctrls.num_writes::total            1307705                       # Number of write requests responded to by this memory
system.mem_ctrls.bw_read::.cpu.inst            271042                       # Total read bandwidth from this memory (bytes/s)
system.mem_ctrls.bw_read::.cpu.data        1301818111                       # Total read bandwidth from this memory (bytes/s)
system.mem_ctrls.bw_read::total            1302089153                       # Total read bandwidth from this memory (bytes/s)
system.mem_ctrls.bw_inst_read::.cpu.inst       271042                       # Instruction read bandwidth from this memory (bytes/s)
system.mem_ctrls.bw_inst_read::total           271042                       # Instruction read bandwidth from this memory (bytes/s)
system.mem_ctrls.bw_write::.writebacks     1293588911                       # Write bandwidth from this memory (bytes/s)
system.mem_ctrls.bw_write::total           1293588911                       # Write bandwidth from this memory (bytes/s)
system.mem_ctrls.bw_total::.writebacks     1293588911                       # Total bandwidth to/from this memory (bytes/s)
system.mem_ctrls.bw_total::.cpu.inst           271042                       # Total bandwidth to/from this memory (bytes/s)
system.mem_ctrls.bw_total::.cpu.data       1301818111                       # Total bandwidth to/from this memory (bytes/s)
system.mem_ctrls.bw_total::total           2595678064                       # Total bandwidth to/from this memory (bytes/s)
system.mem_ctrls.avgPriority_.writebacks::samples   5230820.00                       # Average QoS priority value for accepted requests
system.mem_ctrls.avgPriority_.cpu.inst::samples      1096.00                       # Average QoS priority value for accepted requests
system.mem_ctrls.avgPriority_.cpu.data::samples   5264096.00                       # Average QoS priority value for accepted requests
system.mem_ctrls.priorityMinLatency      0.000000018750                       # per QoS priority minimum request to response latency (s)
system.mem_ctrls.priorityMaxLatency      0.000310854750                       # per QoS priority maximum request to response latency (s)
system.mem_ctrls.numReadWriteTurnArounds       286073                       # Number of turnarounds from READ to WRITE
system.mem_ctrls.numWriteReadTurnArounds       286073                       # Number of turnarounds from WRITE to READ
system.mem_ctrls.numStayReadState             7691102                       # Number of times bus staying in READ state
system.mem_ctrls.numStayWriteState            4968671                       # Number of times bus staying in WRITE state
system.mem_ctrls.readReqs                     1316298                       # Number of read requests accepted
system.mem_ctrls.writeReqs                    1307705                       # Number of write requests accepted
system.mem_ctrls.readBursts                   5265192                       # Number of DRAM read bursts, including those serviced by the write queue
system.mem_ctrls.writeBursts                  5230820                       # Number of DRAM write bursts, including those merged in the write queue
system.mem_ctrls.servicedByWrQ                      0                       # Number of DRAM read bursts serviced by the write queue
system.mem_ctrls.mergedWrBursts                     0                       # Number of DRAM write bursts merged with an existing one
system.mem_ctrls.neitherReadNorWriteReqs            0                       # Number of requests that are neither read nor write
system.mem_ctrls.perBankRdBursts::0            329156                       # Per bank write bursts
system.mem_ctrls.perBankRdBursts::1            329176                       # Per bank write bursts
system.mem_ctrls.perBankRdBursts::2            329216                       # Per bank write bursts
system.mem_ctrls.perBankRdBursts::3            329148                       # Per bank write bursts
system.mem_ctrls.perBankRdBursts::4            329060                       # Per bank write bursts
system.mem_ctrls.perBankRdBursts::5            329136                       # Per bank write bursts
system.mem_ctrls.perBankRdBursts::6            329160                       # Per bank write bursts
system.mem_ctrls.perBankRdBursts::7            328984                       # Per bank write bursts
system.mem_ctrls.perBankRdBursts::8            328940                       # Per bank write bursts
system.mem_ctrls.perBankRdBursts::9            328924                       # Per bank write bursts
system.mem_ctrls.perBankRdBursts::10           328888                       # Per bank write bursts
system.mem_ctrls.perBankRdBursts::11           329128                       # Per bank write bursts
system.mem_ctrls.perBankRdBursts::12           329124                       # Per bank write bursts
system.mem_ctrls.perBankRdBursts::13           329104                       # Per bank write bursts
system.mem_ctrls.perBankRdBursts::14           329116                       # Per bank write bursts
system.mem_ctrls.perBankRdBursts::15           328932                       # Per bank write bursts
system.mem_ctrls.perBankWrBursts::0            326896                       # Per bank write bursts
system.mem_ctrls.perBankWrBursts::1            326987                       # Per bank write bursts
system.mem_ctrls.perBankWrBursts::2            327084                       # Per bank write bursts
system.mem_ctrls.perBankWrBursts::3            327036                       # Per bank write bursts
system.mem_ctrls.perBankWrBursts::4            326992                       # Per bank write bursts
system.mem_ctrls.perBankWrBursts::5            327008                       # Per bank write bursts
system.mem_ctrls.perBankWrBursts::6            327016                       # Per bank write bursts
system.mem_ctrls.perBankWrBursts::7            326896                       # Per bank write bursts
system.mem_ctrls.perBankWrBursts::8            326784                       # Per bank write bursts
system.mem_ctrls.perBankWrBursts::9            326784                       # Per bank write bursts
system.mem_ctrls.perBankWrBursts::10           326720                       # Per bank write bursts
system.mem_ctrls.perBankWrBursts::11           326968                       # Per bank write bursts
system.mem_ctrls.perBankWrBursts::12           326960                       # Per bank write bursts
system.mem_ctrls.perBankWrBursts::13           326940                       # Per bank write bursts
system.mem_ctrls.perBankWrBursts::14           326896                       # Per bank write bursts
system.mem_ctrls.perBankWrBursts::15           326828                       # Per bank write bursts
system.mem_ctrls.avgRdQLen                       4.04                       # Average read queue length when enqueuing
system.mem_ctrls.avgWrQLen                      27.71                       # Average write queue length when enqueuing
system.mem_ctrls.totQLat                 215674839750                       # Total ticks spent queuing
system.mem_ctrls.totBusLat                26325960000                       # Total ticks spent in databus transfers
system.mem_ctrls.totMemAccLat            314397189750                       # Total ticks spent from burst creation until serviced by the DRAM
system.mem_ctrls.avgQLat                     40962.39                       # Average queueing delay per DRAM burst
system.mem_ctrls.avgBusLat                    5000.00                       # Average bus latency per DRAM burst
system.mem_ctrls.avgMemAccLat                59712.39                       # Average memory access latency per DRAM burst
system.mem_ctrls.numRdRetry                         0                       # Number of times read queue was full causing retry
system.mem_ctrls.numWrRetry                         0                       # Number of times write queue was full causing retry
system.mem_ctrls.readRowHits                  4768295                       # Number of row buffer hits during reads
system.mem_ctrls.writeRowHits                 4658124                       # Number of row buffer hits during writes
system.mem_ctrls.readRowHitRate                 90.56                       # Row buffer hit rate for reads
system.mem_ctrls.writeRowHitRate                89.05                       # Row buffer hit rate for writes
system.mem_ctrls.readPktSize::0                     0                       # Read request sizes (log2)
system.mem_ctrls.readPktSize::1                     0                       # Read request sizes (log2)
system.mem_ctrls.readPktSize::2                     0                       # Read request sizes (log2)
system.mem_ctrls.readPktSize::3                     0                       # Read request sizes (log2)
system.mem_ctrls.readPktSize::4                     0                       # Read request sizes (log2)
system.mem_ctrls.readPktSize::5                     0                       # Read request sizes (log2)
system.mem_ctrls.readPktSize::6               5265192                       # Read request sizes (log2)
system.mem_ctrls.writePktSize::0                    0                       # Write request sizes (log2)
system.mem_ctrls.writePktSize::1                    0                       # Write request sizes (log2)
system.mem_ctrls.writePktSize::2                    0                       # Write request sizes (log2)
system.mem_ctrls.writePktSize::3                    0                       # Write request sizes (log2)
system.mem_ctrls.writePktSize::4                    0                       # Write request sizes (log2)
system.mem_ctrls.writePktSize::5                    0                       # Write request sizes (log2)
system.mem_ctrls.writePktSize::6              5230820                       # Write request sizes (log2)
system.mem_ctrls.rdQLenPdf::0                 1315987                       # What read queue length does an incoming req see
system.mem_ctrls.rdQLenPdf::1                 1315988                       # What read queue length does an incoming req see
system.mem_ctrls.rdQLenPdf::2                 1315990                       # What read queue length does an incoming req see
system.mem_ctrls.rdQLenPdf::3                 1315996                       # What read queue length does an incoming req see
system.mem_ctrls.rdQLenPdf::4                     306                       # What read queue length does an incoming req see
system.mem_ctrls.rdQLenPdf::5                     305                       # What read queue length does an incoming req see
system.mem_ctrls.rdQLenPdf::6                     304                       # What read queue length does an incoming req see
system.mem_ctrls.rdQLenPdf::7                     299                       # What read queue length does an incoming req see
system.mem_ctrls.rdQLenPdf::8                       5                       # What read queue length does an incoming req see
system.mem_ctrls.rdQLenPdf::9                       5                       # What read queue length does an incoming req see
system.mem_ctrls.rdQLenPdf::10                      4                       # What read queue length does an incoming req see
system.mem_ctrls.rdQLenPdf::11                      3                       # What read queue length does an incoming req see
system.mem_ctrls.rdQLenPdf::12                      0                       # What read queue length does an incoming req see
system.mem_ctrls.rdQLenPdf::13                      0                       # What read queue length does an incoming req see
system.mem_ctrls.rdQLenPdf::14                      0                       # What read queue length does an incoming req see
system.mem_ctrls.rdQLenPdf::15                      0                       # What read queue length does an incoming req see
system.mem_ctrls.rdQLenPdf::16                      0                       # What read queue length does an incoming req see
system.mem_ctrls.rdQLenPdf::17                      0                       # What read queue length does an incoming req see
system.mem_ctrls.rdQLenPdf::18                      0                       # What read queue length does an incoming req see
system.mem_ctrls.rdQLenPdf::19                      0                       # What read queue length does an incoming req see
system.mem_ctrls.rdQLenPdf::20                      0                       # What read queue length does an incoming req see
system.mem_ctrls.rdQLenPdf::21                      0                       # What read queue length does an incoming req see
system.mem_ctrls.rdQLenPdf::22                      0                       # What read queue length does an incoming req see
system.mem_ctrls.rdQLenPdf::23                      0                       # What read queue length does an incoming req see
system.mem_ctrls.rdQLenPdf::24                      0                       # What read queue length does an incoming req see
system.mem_ctrls.rdQLenPdf::25                      0                       # What read queue length does an incoming req see
system.mem_ctrls.rdQLenPdf::26                      0                       # What read queue length does an incoming req see
system.mem_ctrls.rdQLenPdf::27                      0                       # What read queue length does an incoming req see
system.mem_ctrls.rdQLenPdf::28                      0                       # What read queue length does an incoming req see
system.mem_ctrls.rdQLenPdf::29                      0                       # What read queue length does an incoming req see
system.mem_ctrls.rdQLenPdf::30                      0                       # What read queue length does an incoming req see
system.mem_ctrls.rdQLenPdf::31                      0                       # What read queue length does an incoming req see
system.mem_ctrls.wrQLenPdf::0                       1                       # What write queue length does an incoming req see
system.mem_ctrls.wrQLenPdf::1                       1                       # What write queue length does an incoming req see
system.mem_ctrls.wrQLenPdf::2                       1                       # What write queue length does an incoming req see
system.mem_ctrls.wrQLenPdf::3                       1                       # What write queue length does an incoming req see
system.mem_ctrls.wrQLenPdf::4                       1                       # What write queue length does an incoming req see
system.mem_ctrls.wrQLenPdf::5                       1                       # What write queue length does an incoming req see
system.mem_ctrls.wrQLenPdf::6                       1                       # What write queue length does an incoming req see
system.mem_ctrls.wrQLenPdf::7                       1                       # What write queue length does an incoming req see
system.mem_ctrls.wrQLenPdf::8                       1                       # What write queue length does an incoming req see
system.mem_ctrls.wrQLenPdf::9                       1                       # What write queue length does an incoming req see
system.mem_ctrls.wrQLenPdf::10                      1                       # What write queue length does an incoming req see
system.mem_ctrls.wrQLenPdf::11                      1                       # What write queue length does an incoming req see
system.mem_ctrls.wrQLenPdf::12                      1                       # What write queue length does an incoming req see
system.mem_ctrls.wrQLenPdf::13                      1                       # What write queue length does an incoming req see
system.mem_ctrls.wrQLenPdf::14                      1                       # What write queue length does an incoming req see
system.mem_ctrls.wrQLenPdf::15                 160963                       # What write queue length does an incoming req see
system.mem_ctrls.wrQLenPdf::16                 163111                       # What write queue length does an incoming req see
system.mem_ctrls.wrQLenPdf::17                 277880                       # What write queue length does an incoming req see
system.mem_ctrls.wrQLenPdf::18                 278070                       # What write queue length does an incoming req see
system.mem_ctrls.wrQLenPdf::19                 286269                       # What write queue length does an incoming req see
system.mem_ctrls.wrQLenPdf::20                 286293                       # What write queue length does an incoming req see
system.mem_ctrls.wrQLenPdf::21                 286326                       # What write queue length does an incoming req see
system.mem_ctrls.wrQLenPdf::22                 286341                       # What write queue length does an incoming req see
system.mem_ctrls.wrQLenPdf::23                 286100                       # What write queue length does an incoming req see
system.mem_ctrls.wrQLenPdf::24                 286128                       # What write queue length does an incoming req see
system.mem_ctrls.wrQLenPdf::25                 286134                       # What write queue length does an incoming req see
system.mem_ctrls.wrQLenPdf::26                 286124                       # What write queue length does an incoming req see
system.mem_ctrls.wrQLenPdf::27                 286121                       # What write queue length does an incoming req see
system.mem_ctrls.wrQLenPdf::28                 286093                       # What write queue length does an incoming req see
system.mem_ctrls.wrQLenPdf::29                 286088                       # What write queue length does an incoming req see
system.mem_ctrls.wrQLenPdf::30                 286084                       # What write queue length does an incoming req see
system.mem_ctrls.wrQLenPdf::31                 286080                       # What write queue length does an incoming req see
system.mem_ctrls.wrQLenPdf::32                 286076                       # What write queue length does an incoming req see
system.mem_ctrls.wrQLenPdf::33                 171273                       # What write queue length does an incoming req see
system.mem_ctrls.wrQLenPdf::34                 171082                       # What write queue length does an incoming req see
system.mem_ctrls.wrQLenPdf::35                   2169                       # What write queue length does an incoming req see
system.mem_ctrls.wrQLenPdf::36                      0                       # What write queue length does an incoming req see
system.mem_ctrls.wrQLenPdf::37                      0                       # What write queue length does an incoming req see
system.mem_ctrls.wrQLenPdf::38                      0                       # What write queue length does an incoming req see
system.mem_ctrls.wrQLenPdf::39                      0                       # What write queue length does an incoming req see
system.mem_ctrls.wrQLenPdf::40                      0                       # What write queue length does an incoming req see
system.mem_ctrls.wrQLenPdf::41                      0                       # What write queue length does an incoming req see
system.mem_ctrls.wrQLenPdf::42                      0                       # What write queue length does an incoming req see
system.mem_ctrls.wrQLenPdf::43                      0                       # What write queue length does an incoming req see
system.mem_ctrls.wrQLenPdf::44                      0                       # What write queue length does an incoming req see
system.mem_ctrls.wrQLenPdf::45                      0                       # What write queue length does an incoming req see
system.mem_ctrls.wrQLenPdf::46                      0                       # What write queue length does an incoming req see
system.mem_ctrls.wrQLenPdf::47                      0                       # What write queue length does an incoming req see
system.mem_ctrls.wrQLenPdf::48                      0                       # What write queue length does an incoming req see
system.mem_ctrls.wrQLenPdf::49                      0                       # What write queue length does an incoming req see
system.mem_ctrls.wrQLenPdf::50                      0                       # What write queue length does an incoming req see
system.mem_ctrls.wrQLenPdf::51                      0                       # What write queue length does an incoming req see
system.mem_ctrls.wrQLenPdf::52                      0                       # What write queue length does an incoming req see
system.mem_ctrls.wrQLenPdf::53                      0                       # What write queue length does an incoming req see
system.mem_ctrls.wrQLenPdf::54                      0                       # What write queue length does an incoming req see
system.mem_ctrls.wrQLenPdf::55                      0                       # What write queue length does an incoming req see
system.mem_ctrls.wrQLenPdf::56                      0                       # What write queue length does an incoming req see
system.mem_ctrls.wrQLenPdf::57                      0                       # What write queue length does an incoming req see
system.mem_ctrls.wrQLenPdf::58                      0                       # What write queue length does an incoming req see
system.mem_ctrls.wrQLenPdf::59                      0                       # What write queue length does an incoming req see
system.mem_ctrls.wrQLenPdf::60                      0                       # What write queue length does an incoming req see
system.mem_ctrls.wrQLenPdf::61                      0                       # What write queue length does an incoming req see
system.mem_ctrls.wrQLenPdf::62                      0                       # What write queue length does an incoming req see
system.mem_ctrls.wrQLenPdf::63                      0                       # What write queue length does an incoming req see
system.mem_ctrls.bytesPerActivate::samples      1069567                       # Bytes accessed per row activation
system.mem_ctrls.bytesPerActivate::mean    628.051030                       # Bytes accessed per row activation
system.mem_ctrls.bytesPerActivate::gmean   465.268702                       # Bytes accessed per row activation
system.mem_ctrls.bytesPerActivate::stdev   393.549724                       # Bytes accessed per row activation
system.mem_ctrls.bytesPerActivate::0-127         1008      0.09%      0.09% # Bytes accessed per row activation
system.mem_ctrls.bytesPerActivate::128-255       236038     22.07%     22.16% # Bytes accessed per row activation
system.mem_ctrls.bytesPerActivate::256-383       205337     19.20%     41.36% # Bytes accessed per row activation
system.mem_ctrls.bytesPerActivate::384-511        29390      2.75%     44.11% # Bytes accessed per row activation
system.mem_ctrls.bytesPerActivate::512-639        33391      3.12%     47.23% # Bytes accessed per row activation
system.mem_ctrls.bytesPerActivate::640-767         9268      0.87%     48.10% # Bytes accessed per row activation
system.mem_ctrls.bytesPerActivate::768-895        74287      6.95%     55.04% # Bytes accessed per row activation
system.mem_ctrls.bytesPerActivate::896-1023         7235      0.68%     55.72% # Bytes accessed per row activation
system.mem_ctrls.bytesPerActivate::1024-1151       473613     44.28%    100.00% # Bytes accessed per row activation
system.mem_ctrls.bytesPerActivate::total      1069567                       # Bytes accessed per row activation
system.mem_ctrls.rdPerTurnAround::samples       286073                       # Reads before turning the bus around for writes
system.mem_ctrls.rdPerTurnAround::mean      18.405036                       # Reads before turning the bus around for writes
system.mem_ctrls.rdPerTurnAround::gmean     18.178994                       # Reads before turning the bus around for writes
system.mem_ctrls.rdPerTurnAround::stdev     53.967572                       # Reads before turning the bus around for writes
system.mem_ctrls.rdPerTurnAround::0-1023       286071    100.00%    100.00% # Reads before turning the bus around for writes
system.mem_ctrls.rdPerTurnAround::1024-2047            1      0.00%    100.00% # Reads before turning the bus around for writes
system.mem_ctrls.rdPerTurnAround::28672-29695            1      0.00%    100.00% # Reads before turning the bus around for writes
system.mem_ctrls.rdPerTurnAround::total        286073                       # Reads before turning the bus around for writes
system.mem_ctrls.wrPerTurnAround::samples       286073                       # Writes before turning the bus around for reads
system.mem_ctrls.wrPerTurnAround::mean      18.284826                       # Writes before turning the bus around for reads
[...]
system.cpu.icache.ReadReq_miss_rate::.cpu.inst     0.000013                       # miss rate for ReadReq accesses
system.cpu.icache.ReadReq_miss_rate::total     0.000013                       # miss rate for ReadReq accesses
system.cpu.icache.ReadReq_avg_miss_latency::.cpu.inst 75267.303103                       # average ReadReq miss latency
system.cpu.icache.ReadReq_avg_miss_latency::total 75267.303103                       # average ReadReq miss latency
system.cpu.icache.ReadReq_mshr_misses::.cpu.inst          419                       # number of ReadReq MSHR misses
system.cpu.icache.ReadReq_mshr_misses::total          419                       # number of ReadReq MSHR misses
system.cpu.icache.ReadReq_mshr_miss_latency::.cpu.inst     31118000                       # number of ReadReq MSHR miss cycles
system.cpu.icache.ReadReq_mshr_miss_latency::total     31118000                       # number of ReadReq MSHR miss cycles
system.cpu.icache.ReadReq_mshr_miss_rate::.cpu.inst     0.000013                       # mshr miss rate for ReadReq accesses
system.cpu.icache.ReadReq_mshr_miss_rate::total     0.000013                       # mshr miss rate for ReadReq accesses
system.cpu.icache.ReadReq_avg_mshr_miss_latency::.cpu.inst 74267.303103                       # average ReadReq mshr miss latency
system.cpu.icache.ReadReq_avg_mshr_miss_latency::total 74267.303103                       # average ReadReq mshr miss latency
system.cpu.icache.tags.pwrStateResidencyTicks::UNDEFINED 258793560500                       # Cumulative time (in ticks) in various power states
system.cpu.icache.tags.tagsinuse           106.956470                       # Cycle average of tags in use
system.cpu.icache.tags.total_refs            31734236                       # Total number of references to valid blocks.
system.cpu.icache.tags.sampled_refs               419                       # Sample count of references to valid blocks.
system.cpu.icache.tags.avg_refs          75738.033413                       # Average number of references to valid blocks.
system.cpu.icache.tags.warmup_cycle            102500                       # Cycle when the warmup percentage was hit.
system.cpu.icache.tags.occ_blocks::.cpu.inst   106.956470                       # Average occupied blocks per requestor
system.cpu.icache.tags.occ_percent::.cpu.inst     0.835597                       # Average percentage of cache occupancy
system.cpu.icache.tags.occ_percent::total     0.835597                       # Average percentage of cache occupancy
system.cpu.icache.tags.occ_task_id_blocks::1024          113                       # Occupied blocks per task id
system.cpu.icache.tags.age_task_id_blocks_1024::4          113                       # Occupied blocks per task id
system.cpu.icache.tags.occ_task_id_percent::1024     0.882812                       # Percentage of cache occupancy per task id
system.cpu.icache.tags.tag_accesses          31734655                       # Number of tag accesses
system.cpu.icache.tags.data_accesses         31734655                       # Number of data accesses
system.cpu.dtb.walker.pwrStateResidencyTicks::UNDEFINED 258793560500                       # Cumulative time (in ticks) in various power states
system.cpu.dtb.stage2_mmu.stage2_tlb.walker.pwrStateResidencyTicks::UNDEFINED 258793560500                       # Cumulative time (in ticks) in various power states
system.cpu.dcache.pwrStateResidencyTicks::UNDEFINED 258793560500                       # Cumulative time (in ticks) in various power states
system.cpu.dcache.demand_hits::.cpu.data     83748446                       # number of demand (read+write) hits
system.cpu.dcache.demand_hits::total         83748446                       # number of demand (read+write) hits
system.cpu.dcache.overall_hits::.cpu.data     83748492                       # number of overall hits
system.cpu.dcache.overall_hits::total        83748492                       # number of overall hits
system.cpu.dcache.demand_misses::.cpu.data      2632163                       # number of demand (read+write) misses
system.cpu.dcache.demand_misses::total        2632163                       # number of demand (read+write) misses
system.cpu.dcache.overall_misses::.cpu.data      2632188                       # number of overall misses
system.cpu.dcache.overall_misses::total       2632188                       # number of overall misses
system.cpu.dcache.demand_miss_latency::.cpu.data 321674801000                       # number of demand (read+write) miss cycles
system.cpu.dcache.demand_miss_latency::total 321674801000                       # number of demand (read+write) miss cycles
system.cpu.dcache.overall_miss_latency::.cpu.data 321674801000                       # number of overall miss cycles
system.cpu.dcache.overall_miss_latency::total 321674801000                       # number of overall miss cycles
system.cpu.dcache.demand_accesses::.cpu.data     86380609                       # number of demand (read+write) accesses
system.cpu.dcache.demand_accesses::total     86380609                       # number of demand (read+write) accesses
system.cpu.dcache.overall_accesses::.cpu.data     86380680                       # number of overall (read+write) accesses
system.cpu.dcache.overall_accesses::total     86380680                       # number of overall (read+write) accesses
system.cpu.dcache.demand_miss_rate::.cpu.data     0.030472                       # miss rate for demand accesses
system.cpu.dcache.demand_miss_rate::total     0.030472                       # miss rate for demand accesses
system.cpu.dcache.overall_miss_rate::.cpu.data     0.030472                       # miss rate for overall accesses
system.cpu.dcache.overall_miss_rate::total     0.030472                       # miss rate for overall accesses
system.cpu.dcache.demand_avg_miss_latency::.cpu.data 122209.301248                       # average overall miss latency
system.cpu.dcache.demand_avg_miss_latency::total 122209.301248                       # average overall miss latency
system.cpu.dcache.overall_avg_miss_latency::.cpu.data 122208.140528                       # average overall miss latency
system.cpu.dcache.overall_avg_miss_latency::total 122208.140528                       # average overall miss latency
system.cpu.dcache.blocked_cycles::no_mshrs            0                       # number of cycles access was blocked
system.cpu.dcache.blocked_cycles::no_targets            0                       # number of cycles access was blocked
system.cpu.dcache.blocked::no_mshrs                 0                       # number of cycles access was blocked
system.cpu.dcache.blocked::no_targets               0                       # number of cycles access was blocked
system.cpu.dcache.avg_blocked_cycles::no_mshrs          nan                       # average number of cycles each access was blocked
system.cpu.dcache.avg_blocked_cycles::no_targets          nan                       # average number of cycles each access was blocked
system.cpu.dcache.writebacks::.writebacks      1316139                       # number of writebacks
system.cpu.dcache.writebacks::total           1316139                       # number of writebacks
system.cpu.dcache.demand_mshr_hits::.cpu.data      1315137                       # number of demand (read+write) MSHR hits
system.cpu.dcache.demand_mshr_hits::total      1315137                       # number of demand (read+write) MSHR hits
system.cpu.dcache.overall_mshr_hits::.cpu.data      1315137                       # number of overall MSHR hits
system.cpu.dcache.overall_mshr_hits::total      1315137                       # number of overall MSHR hits
system.cpu.dcache.demand_mshr_misses::.cpu.data      1317026                       # number of demand (read+write) MSHR misses
system.cpu.dcache.demand_mshr_misses::total      1317026                       # number of demand (read+write) MSHR misses
system.cpu.dcache.overall_mshr_misses::.cpu.data      1317036                       # number of overall MSHR misses
system.cpu.dcache.overall_mshr_misses::total      1317036                       # number of overall MSHR misses
system.cpu.dcache.demand_mshr_miss_latency::.cpu.data 157275263000                       # number of demand (read+write) MSHR miss cycles
system.cpu.dcache.demand_mshr_miss_latency::total 157275263000                       # number of demand (read+write) MSHR miss cycles
system.cpu.dcache.overall_mshr_miss_latency::.cpu.data 157276359000                       # number of overall MSHR miss cycles
system.cpu.dcache.overall_mshr_miss_latency::total 157276359000                       # number of overall MSHR miss cycles
system.cpu.dcache.demand_mshr_miss_rate::.cpu.data     0.015247                       # mshr miss rate for demand accesses
system.cpu.dcache.demand_mshr_miss_rate::total     0.015247                       # mshr miss rate for demand accesses
system.cpu.dcache.overall_mshr_miss_rate::.cpu.data     0.015247                       # mshr miss rate for overall accesses
system.cpu.dcache.overall_mshr_miss_rate::total     0.015247                       # mshr miss rate for overall accesses
system.cpu.dcache.demand_avg_mshr_miss_latency::.cpu.data 119416.976582                       # average overall mshr miss latency
system.cpu.dcache.demand_avg_mshr_miss_latency::total 119416.976582                       # average overall mshr miss latency
system.cpu.dcache.overall_avg_mshr_miss_latency::.cpu.data 119416.902044                       # average overall mshr miss latency
system.cpu.dcache.overall_avg_mshr_miss_latency::total 119416.902044                       # average overall mshr miss latency
system.cpu.dcache.replacements                1316780                       # number of replacements
system.cpu.dcache.ReadReq_hits::.cpu.data      2043341                       # number of ReadReq hits
system.cpu.dcache.ReadReq_hits::total         2043341                       # number of ReadReq hits
system.cpu.dcache.ReadReq_misses::.cpu.data          682                       # number of ReadReq misses
system.cpu.dcache.ReadReq_misses::total           682                       # number of ReadReq misses
system.cpu.dcache.ReadReq_miss_latency::.cpu.data     25320000                       # number of ReadReq miss cycles
system.cpu.dcache.ReadReq_miss_latency::total     25320000                       # number of ReadReq miss cycles
system.cpu.dcache.ReadReq_accesses::.cpu.data      2044023                       # number of ReadReq accesses(hits+misses)
system.cpu.dcache.ReadReq_accesses::total      2044023                       # number of ReadReq accesses(hits+misses)
system.cpu.dcache.ReadReq_miss_rate::.cpu.data     0.000334                       # miss rate for ReadReq accesses
system.cpu.dcache.ReadReq_miss_rate::total     0.000334                       # miss rate for ReadReq accesses
system.cpu.dcache.ReadReq_avg_miss_latency::.cpu.data 37126.099707                       # average ReadReq miss latency
system.cpu.dcache.ReadReq_avg_miss_latency::total 37126.099707                       # average ReadReq miss latency
system.cpu.dcache.ReadReq_mshr_hits::.cpu.data           19                       # number of ReadReq MSHR hits
system.cpu.dcache.ReadReq_mshr_hits::total           19                       # number of ReadReq MSHR hits
system.cpu.dcache.ReadReq_mshr_misses::.cpu.data          663                       # number of ReadReq MSHR misses
system.cpu.dcache.ReadReq_mshr_misses::total          663                       # number of ReadReq MSHR misses
system.cpu.dcache.ReadReq_mshr_miss_latency::.cpu.data     23113500                       # number of ReadReq MSHR miss cycles
system.cpu.dcache.ReadReq_mshr_miss_latency::total     23113500                       # number of ReadReq MSHR miss cycles
system.cpu.dcache.ReadReq_mshr_miss_rate::.cpu.data     0.000324                       # mshr miss rate for ReadReq accesses
system.cpu.dcache.ReadReq_mshr_miss_rate::total     0.000324                       # mshr miss rate for ReadReq accesses
system.cpu.dcache.ReadReq_avg_mshr_miss_latency::.cpu.data 34861.990950                       # average ReadReq mshr miss latency
system.cpu.dcache.ReadReq_avg_mshr_miss_latency::total 34861.990950                       # average ReadReq mshr miss latency
system.cpu.dcache.WriteReq_hits::.cpu.data     81705105                       # number of WriteReq hits
system.cpu.dcache.WriteReq_hits::total       81705105                       # number of WriteReq hits
system.cpu.dcache.WriteReq_misses::.cpu.data      2631481                       # number of WriteReq misses
system.cpu.dcache.WriteReq_misses::total      2631481                       # number of WriteReq misses
system.cpu.dcache.WriteReq_miss_latency::.cpu.data 321649481000                       # number of WriteReq miss cycles
system.cpu.dcache.WriteReq_miss_latency::total 321649481000                       # number of WriteReq miss cycles
system.cpu.dcache.WriteReq_accesses::.cpu.data     84336586                       # number of WriteReq accesses(hits+misses)
system.cpu.dcache.WriteReq_accesses::total     84336586                       # number of WriteReq accesses(hits+misses)
system.cpu.dcache.WriteReq_miss_rate::.cpu.data     0.031202                       # miss rate for WriteReq accesses
system.cpu.dcache.WriteReq_miss_rate::total     0.031202                       # miss rate for WriteReq accesses
system.cpu.dcache.WriteReq_avg_miss_latency::.cpu.data 122231.352231                       # average WriteReq miss latency
system.cpu.dcache.WriteReq_avg_miss_latency::total 122231.352231                       # average WriteReq miss latency
system.cpu.dcache.WriteReq_mshr_hits::.cpu.data      1315118                       # number of WriteReq MSHR hits
system.cpu.dcache.WriteReq_mshr_hits::total      1315118                       # number of WriteReq MSHR hits
system.cpu.dcache.WriteReq_mshr_misses::.cpu.data      1316363                       # number of WriteReq MSHR misses
system.cpu.dcache.WriteReq_mshr_misses::total      1316363                       # number of WriteReq MSHR misses
system.cpu.dcache.WriteReq_mshr_miss_latency::.cpu.data 157252149500                       # number of WriteReq MSHR miss cycles
system.cpu.dcache.WriteReq_mshr_miss_latency::total 157252149500                       # number of WriteReq MSHR miss cycles
system.cpu.dcache.WriteReq_mshr_miss_rate::.cpu.data     0.015608                       # mshr miss rate for WriteReq accesses
system.cpu.dcache.WriteReq_mshr_miss_rate::total     0.015608                       # mshr miss rate for WriteReq accesses
system.cpu.dcache.WriteReq_avg_mshr_miss_latency::.cpu.data 119459.563585                       # average WriteReq mshr miss latency
system.cpu.dcache.WriteReq_avg_mshr_miss_latency::total 119459.563585                       # average WriteReq mshr miss latency
system.cpu.dcache.SoftPFReq_hits::.cpu.data           46                       # number of SoftPFReq hits
system.cpu.dcache.SoftPFReq_hits::total            46                       # number of SoftPFReq hits
system.cpu.dcache.SoftPFReq_misses::.cpu.data           25                       # number of SoftPFReq misses
system.cpu.dcache.SoftPFReq_misses::total           25                       # number of SoftPFReq misses
system.cpu.dcache.SoftPFReq_accesses::.cpu.data           71                       # number of SoftPFReq accesses(hits+misses)
system.cpu.dcache.SoftPFReq_accesses::total           71                       # number of SoftPFReq accesses(hits+misses)
system.cpu.dcache.SoftPFReq_miss_rate::.cpu.data     0.352113                       # miss rate for SoftPFReq accesses
system.cpu.dcache.SoftPFReq_miss_rate::total     0.352113                       # miss rate for SoftPFReq accesses
system.cpu.dcache.SoftPFReq_mshr_misses::.cpu.data           10                       # number of SoftPFReq MSHR misses
system.cpu.dcache.SoftPFReq_mshr_misses::total           10                       # number of SoftPFReq MSHR misses
system.cpu.dcache.SoftPFReq_mshr_miss_latency::.cpu.data      1096000                       # number of SoftPFReq MSHR miss cycles
system.cpu.dcache.SoftPFReq_mshr_miss_latency::total      1096000                       # number of SoftPFReq MSHR miss cycles
system.cpu.dcache.SoftPFReq_mshr_miss_rate::.cpu.data     0.140845                       # mshr miss rate for SoftPFReq accesses
system.cpu.dcache.SoftPFReq_mshr_miss_rate::total     0.140845                       # mshr miss rate for SoftPFReq accesses
system.cpu.dcache.SoftPFReq_avg_mshr_miss_latency::.cpu.data       109600                       # average SoftPFReq mshr miss latency
system.cpu.dcache.SoftPFReq_avg_mshr_miss_latency::total       109600                       # average SoftPFReq mshr miss latency
system.cpu.dcache.LoadLockedReq_hits::.cpu.data           34                       # number of LoadLockedReq hits
system.cpu.dcache.LoadLockedReq_hits::total           34                       # number of LoadLockedReq hits
system.cpu.dcache.LoadLockedReq_accesses::.cpu.data           34                       # number of LoadLockedReq accesses(hits+misses)
system.cpu.dcache.LoadLockedReq_accesses::total           34                       # number of LoadLockedReq accesses(hits+misses)
system.cpu.dcache.StoreCondReq_hits::.cpu.data           34                       # number of StoreCondReq hits
system.cpu.dcache.StoreCondReq_hits::total           34                       # number of StoreCondReq hits
system.cpu.dcache.StoreCondReq_accesses::.cpu.data           34                       # number of StoreCondReq accesses(hits+misses)
system.cpu.dcache.StoreCondReq_accesses::total           34                       # number of StoreCondReq accesses(hits+misses)
system.cpu.dcache.tags.pwrStateResidencyTicks::UNDEFINED 258793560500                       # Cumulative time (in ticks) in various power states
system.cpu.dcache.tags.tagsinuse           255.929545                       # Cycle average of tags in use
system.cpu.dcache.tags.total_refs            85065596                       # Total number of references to valid blocks.
system.cpu.dcache.tags.sampled_refs           1317036                       # Sample count of references to valid blocks.
system.cpu.dcache.tags.avg_refs             64.588664                       # Average number of references to valid blocks.
system.cpu.dcache.tags.warmup_cycle            213500                       # Cycle when the warmup percentage was hit.
system.cpu.dcache.tags.occ_blocks::.cpu.data   255.929545                       # Average occupied blocks per requestor
system.cpu.dcache.tags.occ_percent::.cpu.data     0.999725                       # Average percentage of cache occupancy
system.cpu.dcache.tags.occ_percent::total     0.999725                       # Average percentage of cache occupancy
system.cpu.dcache.tags.occ_task_id_blocks::1024          256                       # Occupied blocks per task id
system.cpu.dcache.tags.age_task_id_blocks_1024::0           51                       # Occupied blocks per task id
system.cpu.dcache.tags.age_task_id_blocks_1024::1          205                       # Occupied blocks per task id
system.cpu.dcache.tags.occ_task_id_percent::1024            1                       # Percentage of cache occupancy per task id
system.cpu.dcache.tags.tag_accesses         174078532                       # Number of tag accesses
system.cpu.dcache.tags.data_accesses        174078532                       # Number of data accesses
system.cpu.itb.walker.pwrStateResidencyTicks::UNDEFINED 258793560500                       # Cumulative time (in ticks) in various power states
system.cpu.itb.stage2_mmu.stage2_tlb.walker.pwrStateResidencyTicks::UNDEFINED 258793560500                       # Cumulative time (in ticks) in various power states

---------- End Simulation Statistics   ----------
