
---------- Begin Simulation Statistics ----------
final_tick                                  309449000                       # Number of ticks from beginning of simulation (restored from checkpoints and never reset)
host_inst_rate                                 405647                       # Simulator instruction rate (inst/s)
host_mem_usage                                 678752                       # Number of bytes of host memory used
host_op_rate                                   538688                       # Simulator op (including micro ops) rate (op/s)
host_seconds                                     1.03                       # Real time elapsed on the host
host_tick_rate                              299218668                       # Simulator tick rate (ticks/s)
sim_freq                                 1000000000000                       # Frequency of simulated ticks
sim_insts                                      419481                       # Number of instructions simulated
sim_ops                                        557100                       # Number of ops (including micro ops) simulated
sim_seconds                                  0.000309                       # Number of seconds simulated
sim_ticks                                   309449000                       # Number of ticks simulated
system.cpu.branchPred.BTBCorrect                    0                       # Number of correct BTB predictions (this stat may not work properly.
system.cpu.branchPred.BTBHitPct             93.156296                       # BTB Hit Percentage
system.cpu.branchPred.BTBHits                   48445                       # Number of BTB hits
system.cpu.branchPred.BTBLookups                52004                       # Number of BTB lookups
system.cpu.branchPred.RASInCorrect                  5                       # Number of incorrect RAS predictions.
system.cpu.branchPred.condIncorrect              2398                       # Number of conditional branches incorrect
system.cpu.branchPred.condPredicted             28815                       # Number of conditional branches predicted
system.cpu.branchPred.indirectHits                296                       # Number of indirect target hits.
system.cpu.branchPred.indirectLookups             654                       # Number of indirect predictor lookups.
system.cpu.branchPred.indirectMisses              358                       # Number of indirect misses.
system.cpu.branchPred.lookups                   89358                       # Number of BP lookups
system.cpu.branchPred.usedRAS                   23578                       # Number of times the RAS was used to get a target.
system.cpu.branchPredindirectMispredicted          146                       # Number of mispredicted indirect branches.
system.cpu.committedInsts                      419481                       # Number of instructions committed
system.cpu.committedOps                        557100                       # Number of ops (including micro ops) committed
system.cpu.cpi                               1.475390                       # CPI: cycles per instruction
system.cpu.discardedOps                          8136                       # Number of ops (including micro ops) which were discarded before commit
system.cpu.dtb.accesses                             0                       # DTB accesses
system.cpu.dtb.align_faults                         0                       # Number of TLB faults due to alignment restrictions
system.cpu.dtb.domain_faults                        0                       # Number of TLB faults due to domain restrictions
system.cpu.dtb.flush_entries                        0                       # Number of entries that have been flushed from TLB
system.cpu.dtb.flush_tlb                            0                       # Number of times complete TLB was flushed
system.cpu.dtb.flush_tlb_asid                       0                       # Number of times TLB was flushed by ASID
system.cpu.dtb.flush_tlb_mva                        0                       # Number of times TLB was flushed by MVA
system.cpu.dtb.flush_tlb_mva_asid                   0                       # Number of times TLB was flushed by MVA & ASID
system.cpu.dtb.hits                                 0                       # DTB hits
system.cpu.dtb.inst_accesses                        0                       # ITB inst accesses
system.cpu.dtb.inst_hits                            0                       # ITB inst hits
system.cpu.dtb.inst_misses                          0                       # ITB inst misses
system.cpu.dtb.misses                               0                       # DTB misses
system.cpu.dtb.perms_faults                         0                       # Number of TLB faults due to permissions restrictions
system.cpu.dtb.prefetch_faults                      0                       # Number of TLB faults due to prefetch
system.cpu.dtb.read_accesses                        0                       # DTB read accesses
system.cpu.dtb.read_hits                            0                       # DTB read hits
system.cpu.dtb.read_misses                          0                       # DTB read misses
system.cpu.dtb.stage2_mmu.stage2_tlb.accesses            0                       # DTB accesses
system.cpu.dtb.stage2_mmu.stage2_tlb.align_faults            0                       # Number of TLB faults due to alignment restrictions
system.cpu.dtb.stage2_mmu.stage2_tlb.domain_faults            0                       # Number of TLB faults due to domain restrictions
system.cpu.dtb.stage2_mmu.stage2_tlb.flush_entries            0                       # Number of entries that have been flushed from TLB
system.cpu.dtb.stage2_mmu.stage2_tlb.flush_tlb            0                       # Number of times complete TLB was flushed
system.cpu.dtb.stage2_mmu.stage2_tlb.flush_tlb_asid            0                       # Number of times TLB was flushed by ASID
system.cpu.dtb.stage2_mmu.stage2_tlb.flush_tlb_mva            0                       # Number of times TLB was flushed by MVA
system.cpu.dtb.stage2_mmu.stage2_tlb.flush_tlb_mva_asid            0                       # Number of times TLB was flushed by MVA & ASID
system.cpu.dtb.stage2_mmu.stage2_tlb.hits            0                       # DTB hits
system.cpu.dtb.stage2_mmu.stage2_tlb.inst_accesses            0                       # ITB inst accesses
system.cpu.dtb.stage2_mmu.stage2_tlb.inst_hits            0                       # ITB inst hits
system.cpu.dtb.stage2_mmu.stage2_tlb.inst_misses            0                       # ITB inst misses
system.cpu.dtb.stage2_mmu.stage2_tlb.misses            0                       # DTB misses
system.cpu.dtb.stage2_mmu.stage2_tlb.perms_faults            0                       # Number of TLB faults due to permissions restrictions
system.cpu.dtb.stage2_mmu.stage2_tlb.prefetch_faults            0                       # Number of TLB faults due to prefetch
system.cpu.dtb.stage2_mmu.stage2_tlb.read_accesses            0                       # DTB read accesses
system.cpu.dtb.stage2_mmu.stage2_tlb.read_hits            0                       # DTB read hits
system.cpu.dtb.stage2_mmu.stage2_tlb.read_misses            0                       # DTB read misses
system.cpu.dtb.stage2_mmu.stage2_tlb.walker.walkRequestOrigin_Requested::Data            0                       # Table walker requests started/completed, data/inst
system.cpu.dtb.stage2_mmu.stage2_tlb.walker.walkRequestOrigin_Requested::Inst            0                       # Table walker requests started/completed, data/inst
system.cpu.dtb.stage2_mmu.stage2_tlb.walker.walkRequestOrigin_Requested::total            0                       # Table walker requests started/completed, data/inst
system.cpu.dtb.stage2_mmu.stage2_tlb.walker.walkRequestOrigin_Completed::Data            0                       # Table walker requests started/completed, data/inst
system.cpu.dtb.stage2_mmu.stage2_tlb.walker.walkRequestOrigin_Completed::Inst            0                       # Table walker requests started/completed, data/inst
system.cpu.dtb.stage2_mmu.stage2_tlb.walker.walkRequestOrigin_Completed::total            0                       # Table walker requests started/completed, data/inst
system.cpu.dtb.stage2_mmu.stage2_tlb.walker.walkRequestOrigin::total            0                       # Table walker requests started/completed, data/inst
system.cpu.dtb.stage2_mmu.stage2_tlb.walker.walks            0                       # Table walker walks requested
system.cpu.dtb.stage2_mmu.stage2_tlb.write_accesses            0                       # DTB write accesses
system.cpu.dtb.stage2_mmu.stage2_tlb.write_hits            0                       # DTB write hits
system.cpu.dtb.stage2_mmu.stage2_tlb.write_misses            0                       # DTB write misses
system.cpu.dtb.walker.walkRequestOrigin_Requested::Data            0                       # Table walker requests started/completed, data/inst
system.cpu.dtb.walker.walkRequestOrigin_Requested::Inst            0                       # Table walker requests started/completed, data/inst
system.cpu.dtb.walker.walkRequestOrigin_Requested::total            0                       # Table walker requests started/completed, data/inst
system.cpu.dtb.walker.walkRequestOrigin_Completed::Data            0                       # Table walker requests started/completed, data/inst
system.cpu.dtb.walker.walkRequestOrigin_Completed::Inst            0                       # Table walker requests started/completed, data/inst
system.cpu.dtb.walker.walkRequestOrigin_Completed::total            0                       # Table walker requests started/completed, data/inst
system.cpu.dtb.walker.walkRequestOrigin::total            0                       # Table walker requests started/completed, data/inst
system.cpu.dtb.walker.walks                         0                       # Table walker walks requested
system.cpu.dtb.write_accesses                       0                       # DTB write accesses
system.cpu.dtb.write_hits                           0                       # DTB write hits
system.cpu.dtb.write_misses                         0                       # DTB write misses
system.cpu.fetch2.amo_instructions                  0                       # Number of memory atomic instructions successfully decoded
system.cpu.fetch2.fp_instructions                   0                       # Number of floating point instructions successfully decoded
system.cpu.fetch2.int_instructions             262699                       # Number of integer instructions successfully decoded
system.cpu.fetch2.load_instructions             61736                       # Number of memory load instructions successfully decoded
system.cpu.fetch2.store_instructions            24859                       # Number of memory store instructions successfully decoded
system.cpu.fetch2.vec_instructions                  0                       # Number of SIMD instructions successfully decoded
system.cpu.idleCycles                           65930                       # Total number of cycles that the object has spent stopped
system.cpu.ipc                               0.677787                       # IPC: instructions per cycle
system.cpu.itb.accesses                             0                       # DTB accesses
system.cpu.itb.align_faults                         0                       # Number of TLB faults due to alignment restrictions
system.cpu.itb.domain_faults                        0                       # Number of TLB faults due to domain restrictions
system.cpu.itb.flush_entries                        0                       # Number of entries that have been flushed from TLB
system.cpu.itb.flush_tlb                            0                       # Number of times complete TLB was flushed
system.cpu.itb.flush_tlb_asid                       0                       # Number of times TLB was flushed by ASID
system.cpu.itb.flush_tlb_mva                        0                       # Number of times TLB was flushed by MVA
system.cpu.itb.flush_tlb_mva_asid                   0                       # Number of times TLB was flushed by MVA & ASID
system.cpu.itb.hits                                 0                       # DTB hits
system.cpu.itb.inst_accesses                        0                       # ITB inst accesses
system.cpu.itb.inst_hits                            0                       # ITB inst hits
system.cpu.itb.inst_misses                          0                       # ITB inst misses
system.cpu.itb.misses                               0                       # DTB misses
system.cpu.itb.perms_faults                         0                       # Number of TLB faults due to permissions restrictions
system.cpu.itb.prefetch_faults                      0                       # Number of TLB faults due to prefetch
system.cpu.itb.read_accesses                        0                       # DTB read accesses
system.cpu.itb.read_hits                            0                       # DTB read hits
system.cpu.itb.read_misses                          0                       # DTB read misses
system.cpu.itb.stage2_mmu.stage2_tlb.accesses            0                       # DTB accesses
system.cpu.itb.stage2_mmu.stage2_tlb.align_faults            0                       # Number of TLB faults due to alignment restrictions
system.cpu.itb.stage2_mmu.stage2_tlb.domain_faults            0                       # Number of TLB faults due to domain restrictions
system.cpu.itb.stage2_mmu.stage2_tlb.flush_entries            0                       # Number of entries that have been flushed from TLB
system.cpu.itb.stage2_mmu.stage2_tlb.flush_tlb            0                       # Number of times complete TLB was flushed
system.cpu.itb.stage2_mmu.stage2_tlb.flush_tlb_asid            0                       # Number of times TLB was flushed by ASID
system.cpu.itb.stage2_mmu.stage2_tlb.flush_tlb_mva            0                       # Number of times TLB was flushed by MVA
system.cpu.itb.stage2_mmu.stage2_tlb.flush_tlb_mva_asid            0                       # Number of times TLB was flushed by MVA & ASID
system.cpu.itb.stage2_mmu.stage2_tlb.hits            0                       # DTB hits
system.cpu.itb.stage2_mmu.stage2_tlb.inst_accesses            0                       # ITB inst accesses
system.cpu.itb.stage2_mmu.stage2_tlb.inst_hits            0                       # ITB inst hits
system.cpu.itb.stage2_mmu.stage2_tlb.inst_misses            0                       # ITB inst misses
system.cpu.itb.stage2_mmu.stage2_tlb.misses            0                       # DTB misses
system.cpu.itb.stage2_mmu.stage2_tlb.perms_faults            0                       # Number of TLB faults due to permissions restrictions
system.cpu.itb.stage2_mmu.stage2_tlb.prefetch_faults            0                       # Number of TLB faults due to prefetch
system.cpu.itb.stage2_mmu.stage2_tlb.read_accesses            0                       # DTB read accesses
system.cpu.itb.stage2_mmu.stage2_tlb.read_hits            0                       # DTB read hits
system.cpu.itb.stage2_mmu.stage2_tlb.read_misses            0                       # DTB read misses
system.cpu.itb.stage2_mmu.stage2_tlb.walker.walkRequestOrigin_Requested::Data            0                       # Table walker requests started/completed, data/inst
system.cpu.itb.stage2_mmu.stage2_tlb.walker.walkRequestOrigin_Requested::Inst            0                       # Table walker requests started/completed, data/inst
system.cpu.itb.stage2_mmu.stage2_tlb.walker.walkRequestOrigin_Requested::total            0                       # Table walker requests started/completed, data/inst
system.cpu.itb.stage2_mmu.stage2_tlb.walker.walkRequestOrigin_Completed::Data            0                       # Table walker requests started/completed, data/inst
system.cpu.itb.stage2_mmu.stage2_tlb.walker.walkRequestOrigin_Completed::Inst            0                       # Table walker requests started/completed, data/inst
system.cpu.itb.stage2_mmu.stage2_tlb.walker.walkRequestOrigin_Completed::total            0                       # Table walker requests started/completed, data/inst
system.cpu.itb.stage2_mmu.stage2_tlb.walker.walkRequestOrigin::total            0                       # Table walker requests started/completed, data/inst
system.cpu.itb.stage2_mmu.stage2_tlb.walker.walks            0                       # Table walker walks requested
system.cpu.itb.stage2_mmu.stage2_tlb.write_accesses            0                       # DTB write accesses
system.cpu.itb.stage2_mmu.stage2_tlb.write_hits            0                       # DTB write hits
system.cpu.itb.stage2_mmu.stage2_tlb.write_misses            0                       # DTB write misses
system.cpu.itb.walker.walkRequestOrigin_Requested::Data            0                       # Table walker requests started/completed, data/inst
system.cpu.itb.walker.walkRequestOrigin_Requested::Inst            0                       # Table walker requests started/completed, data/inst
system.cpu.itb.walker.walkRequestOrigin_Requested::total            0                       # Table walker requests started/completed, data/inst
system.cpu.itb.walker.walkRequestOrigin_Completed::Data            0                       # Table walker requests started/completed, data/inst
system.cpu.itb.walker.walkRequestOrigin_Completed::Inst            0                       # Table walker requests started/completed, data/inst
system.cpu.itb.walker.walkRequestOrigin_Completed::total            0                       # Table walker requests started/completed, data/inst
system.cpu.itb.walker.walkRequestOrigin::total            0                       # Table walker requests started/completed, data/inst
system.cpu.itb.walker.walks                         0                       # Table walker walks requested
system.cpu.itb.write_accesses                       0                       # DTB write accesses
system.cpu.itb.write_hits                           0                       # DTB write hits
system.cpu.itb.write_misses                         0                       # DTB write misses
system.cpu.numCycles                           618898                       # number of cpu cycles simulated
system.cpu.numFetchSuspends                         0                       # Number of times Execute suspended instruction fetching
system.cpu.numWorkItemsCompleted                    0                       # number of work items this cpu completed
system.cpu.numWorkItemsStarted                      0                       # number of work items this cpu started
system.cpu.op_class_0::No_OpClass                   0      0.00%      0.00% # Class of committed instruction
system.cpu.op_class_0::IntAlu                  358686     64.38%     64.38% # Class of committed instruction
system.cpu.op_class_0::IntMult                    205      0.04%     64.42% # Class of committed instruction
system.cpu.op_class_0::IntDiv                       0      0.00%     64.42% # Class of committed instruction
system.cpu.op_class_0::FloatAdd                     0      0.00%     64.42% # Class of committed instruction
system.cpu.op_class_0::FloatCmp                     0      0.00%     64.42% # Class of committed instruction
system.cpu.op_class_0::FloatCvt                     0      0.00%     64.42% # Class of committed instruction
system.cpu.op_class_0::FloatMult                    0      0.00%     64.42% # Class of committed instruction
system.cpu.op_class_0::FloatMultAcc                 0      0.00%     64.42% # Class of committed instruction
system.cpu.op_class_0::FloatDiv                     0      0.00%     64.42% # Class of committed instruction
system.cpu.op_class_0::FloatMisc                    0      0.00%     64.42% # Class of committed instruction
system.cpu.op_class_0::FloatSqrt                    0      0.00%     64.42% # Class of committed instruction
system.cpu.op_class_0::SimdAdd                      0      0.00%     64.42% # Class of committed instruction
system.cpu.op_class_0::SimdAddAcc                   0      0.00%     64.42% # Class of committed instruction
system.cpu.op_class_0::SimdAlu                      0      0.00%     64.42% # Class of committed instruction
system.cpu.op_class_0::SimdCmp                      0      0.00%     64.42% # Class of committed instruction
system.cpu.op_class_0::SimdCvt                      0      0.00%     64.42% # Class of committed instruction
system.cpu.op_class_0::SimdMisc                     0      0.00%     64.42% # Class of committed instruction
system.cpu.op_class_0::SimdMult                     0      0.00%     64.42% # Class of committed instruction
system.cpu.op_class_0::SimdMultAcc                  0      0.00%     64.42% # Class of committed instruction
system.cpu.op_class_0::SimdShift                    0      0.00%     64.42% # Class of committed instruction
system.cpu.op_class_0::SimdShiftAcc                 0      0.00%     64.42% # Class of committed instruction
system.cpu.op_class_0::SimdDiv                      0      0.00%     64.42% # Class of committed instruction
system.cpu.op_class_0::SimdSqrt                     0      0.00%     64.42% # Class of committed instruction
system.cpu.op_class_0::SimdFloatAdd                 0      0.00%     64.42% # Class of committed instruction
system.cpu.op_class_0::SimdFloatAlu                 0      0.00%     64.42% # Class of committed instruction
system.cpu.op_class_0::SimdFloatCmp                 0      0.00%     64.42% # Class of committed instruction
system.cpu.op_class_0::SimdFloatCvt                 0      0.00%     64.42% # Class of committed instruction
system.cpu.op_class_0::SimdFloatDiv                 0      0.00%     64.42% # Class of committed instruction
system.cpu.op_class_0::SimdFloatMisc               21      0.00%     64.43% # Class of committed instruction
system.cpu.op_class_0::SimdFloatMult                0      0.00%     64.43% # Class of committed instruction
system.cpu.op_class_0::SimdFloatMultAcc             0      0.00%     64.43% # Class of committed instruction
system.cpu.op_class_0::SimdFloatSqrt                0      0.00%     64.43% # Class of committed instruction
system.cpu.op_class_0::SimdReduceAdd                0      0.00%     64.43% # Class of committed instruction
system.cpu.op_class_0::SimdReduceAlu                0      0.00%     64.43% # Class of committed instruction
system.cpu.op_class_0::SimdReduceCmp                0      0.00%     64.43% # Class of committed instruction
system.cpu.op_class_0::SimdFloatReduceAdd            0      0.00%     64.43% # Class of committed instruction
system.cpu.op_class_0::SimdFloatReduceCmp            0      0.00%     64.43% # Class of committed instruction
system.cpu.op_class_0::SimdAes                      0      0.00%     64.43% # Class of committed instruction
system.cpu.op_class_0::SimdAesMix                   0      0.00%     64.43% # Class of committed instruction
system.cpu.op_class_0::SimdSha1Hash                 0      0.00%     64.43% # Class of committed instruction
system.cpu.op_class_0::SimdSha1Hash2                0      0.00%     64.43% # Class of committed instruction
system.cpu.op_class_0::SimdSha256Hash               0      0.00%     64.43% # Class of committed instruction
system.cpu.op_class_0::SimdSha256Hash2              0      0.00%     64.43% # Class of committed instruction
system.cpu.op_class_0::SimdShaSigma2                0      0.00%     64.43% # Class of committed instruction
system.cpu.op_class_0::SimdShaSigma3                0      0.00%     64.43% # Class of committed instruction
system.cpu.op_class_0::SimdPredAlu                  0      0.00%     64.43% # Class of committed instruction
system.cpu.op_class_0::MemRead                 105128     18.87%     83.30% # Class of committed instruction
system.cpu.op_class_0::MemWrite                 93060     16.70%    100.00% # Class of committed instruction
system.cpu.op_class_0::FloatMemRead                 0      0.00%    100.00% # Class of committed instruction
system.cpu.op_class_0::FloatMemWrite                0      0.00%    100.00% # Class of committed instruction
system.cpu.op_class_0::IprAccess                    0      0.00%    100.00% # Class of committed instruction
system.cpu.op_class_0::InstPrefetch                 0      0.00%    100.00% # Class of committed instruction
system.cpu.op_class_0::total                   557100                       # Class of committed instruction
system.cpu.tickCycles                          552968                       # Number of cycles that the object actually ticked
system.cpu.workload.numSyscalls                    31                       # Number of system calls
system.membus.snoop_filter.hit_multi_requests            5                       # Number of requests hitting in the snoop filter with multiple (>1) holders of the requested data.
system.membus.snoop_filter.hit_multi_snoops            0                       # Number of snoops hitting in the snoop filter with multiple (>1) holders of the requested data.
system.membus.snoop_filter.hit_single_requests          415                       # Number of requests hitting in the snoop filter with a single holder of the requested data.
system.membus.snoop_filter.hit_single_snoops            0                       # Number of snoops hitting in the snoop filter with a single holder of the requested data.
system.membus.snoop_filter.tot_requests          1293                       # Total number of requests made to the snoop filter.
system.membus.snoop_filter.tot_snoops               0                       # Total number of snoops made to the snoop filter.
system.membus.pwrStateResidencyTicks::UNDEFINED    309449000                       # Cumulative time (in ticks) in various power states
system.membus.trans_dist::ReadResp                831                       # Transaction distribution
system.membus.trans_dist::WritebackDirty            1                       # Transaction distribution
system.membus.trans_dist::WritebackClean          394                       # Transaction distribution
system.membus.trans_dist::ReadExReq                67                       # Transaction distribution
system.membus.trans_dist::ReadExResp               67                       # Transaction distribution
system.membus.trans_dist::ReadCleanReq            718                       # Transaction distribution
system.membus.trans_dist::ReadSharedReq           113                       # Transaction distribution
system.membus.pkt_count_system.cpu.icache.mem_side::system.mem_ctrls.port         1830                       # Packet count per connected master and slave (bytes)
system.membus.pkt_count_system.cpu.dcache.mem_side::system.mem_ctrls.port          361                       # Packet count per connected master and slave (bytes)
system.membus.pkt_count::total                   2191                       # Packet count per connected master and slave (bytes)
system.membus.pkt_size_system.cpu.icache.mem_side::system.mem_ctrls.port        71168                       # Cumulative packet size per connected master and slave (bytes)
system.membus.pkt_size_system.cpu.dcache.mem_side::system.mem_ctrls.port        11584                       # Cumulative packet size per connected master and slave (bytes)
system.membus.pkt_size::total                   82752                       # Cumulative packet size per connected master and slave (bytes)
system.membus.snoops                                0                       # Total snoops (count)
system.membus.snoopTraffic                          0                       # Total snoop traffic (bytes)
system.membus.snoop_fanout::samples               898                       # Request fanout histogram
system.membus.snoop_fanout::mean             0.027840                       # Request fanout histogram
system.membus.snoop_fanout::stdev            0.164605                       # Request fanout histogram
system.membus.snoop_fanout::underflows              0      0.00%      0.00% # Request fanout histogram
system.membus.snoop_fanout::0                     873     97.22%     97.22% # Request fanout histogram
system.membus.snoop_fanout::1                      25      2.78%    100.00% # Request fanout histogram
system.membus.snoop_fanout::2                       0      0.00%    100.00% # Request fanout histogram
system.membus.snoop_fanout::overflows               0      0.00%    100.00% # Request fanout histogram
system.membus.snoop_fanout::min_value               0                       # Request fanout histogram
system.membus.snoop_fanout::max_value               1                       # Request fanout histogram
system.membus.snoop_fanout::total                 898                       # Request fanout histogram
system.membus.reqLayer0.occupancy             3018500                       # Layer occupancy (ticks)
system.membus.reqLayer0.utilization               1.0                       # Layer utilization (%)
system.membus.respLayer1.occupancy            3718250                       # Layer occupancy (ticks)
system.membus.respLayer1.utilization              1.2                       # Layer utilization (%)
system.membus.respLayer2.occupancy             966500                       # Layer occupancy (ticks)
system.membus.respLayer2.utilization              0.3                       # Layer utilization (%)
system.voltage_domain.voltage                       1                       # Voltage in Volts
system.clk_domain.clock                          1000                       # Clock period in ticks
system.cpu_voltage_domain.voltage                   1                       # Voltage in Volts
system.mem_ctrls.pwrStateResidencyTicks::UNDEFINED    309449000                       # Cumulative time (in ticks) in various power states
system.mem_ctrls.bytes_read::.cpu.inst          45952                       # Number of bytes read from this memory
system.mem_ctrls.bytes_read::.cpu.data          11520                       # Number of bytes read from this memory
system.mem_ctrls.bytes_read::total              57472                       # Number of bytes read from this memory
system.mem_ctrls.bytes_inst_read::.cpu.inst        45952                       # Number of instructions bytes read from this memory
system.mem_ctrls.bytes_inst_read::total         45952                       # Number of instructions bytes read from this memory
system.mem_ctrls.bytes_written::.writebacks           64                       # Number of bytes written to this memory
system.mem_ctrls.bytes_written::total              64                       # Number of bytes written to this memory
system.mem_ctrls.num_reads::.cpu.inst             718                       # Number of read requests responded to by this memory
system.mem_ctrls.num_reads::.cpu.data             180                       # Number of read requests responded to by this memory
system.mem_ctrls.num_reads::total                 898                       # Number of read requests responded to by this memory
system.mem_ctrls.num_writes::.writebacks            1                       # Number of write requests responded to by this memory
system.mem_ctrls.num_writes::total                  1                       # Number of write requests responded to by this memory
system.mem_ctrls.bw_read::.cpu.inst         148496198                       # Total read bandwidth from this memory (bytes/s)
system.mem_ctrls.bw_read::.cpu.data          37227459                       # Total read bandwidth from this memory (bytes/s)
system.mem_ctrls.bw_read::total             185723657                       # Total read bandwidth from this memory (bytes/s)
system.mem_ctrls.bw_inst_read::.cpu.inst    148496198                       # Instruction read bandwidth from this memory (bytes/s)
system.mem_ctrls.bw_inst_read::total        148496198                       # Instruction read bandwidth from this memory (bytes/s)
system.mem_ctrls.bw_write::.writebacks         206819                       # Write bandwidth from this memory (bytes/s)
system.mem_ctrls.bw_write::total               206819                       # Write bandwidth from this memory (bytes/s)
system.mem_ctrls.bw_total::.writebacks         206819                       # Total bandwidth to/from this memory (bytes/s)
system.mem_ctrls.bw_total::.cpu.inst        148496198                       # Total bandwidth to/from this memory (bytes/s)
system.mem_ctrls.bw_total::.cpu.data         37227459                       # Total bandwidth to/from this memory (bytes/s)
system.mem_ctrls.bw_total::total            185930476                       # Total bandwidth to/from this memory (bytes/s)
system.mem_ctrls.avgPriority_.writebacks::samples       107.00                       # Average QoS priority value for accepted requests
system.mem_ctrls.avgPriority_.cpu.inst::samples       416.00                       # Average QoS priority value for accepted requests
system.mem_ctrls.avgPriority_.cpu.data::samples       179.00                       # Average QoS priority value for accepted requests
system.mem_ctrls.priorityMinLatency      0.000000018750                       # per QoS priority minimum request to response latency (s)
system.mem_ctrls.priorityMaxLatency      0.000569660750                       # per QoS priority maximum request to response latency (s)
system.mem_ctrls.numReadWriteTurnArounds            5                       # Number of turnarounds from READ to WRITE
system.mem_ctrls.numWriteReadTurnArounds            5                       # Number of turnarounds from WRITE to READ
system.mem_ctrls.numStayReadState                1646                       # Number of times bus staying in READ state
system.mem_ctrls.numStayWriteState                 79                       # Number of times bus staying in WRITE state
system.mem_ctrls.readReqs                         898                       # Number of read requests accepted
system.mem_ctrls.writeReqs                        390                       # Number of write requests accepted
system.mem_ctrls.readBursts                       898                       # Number of DRAM read bursts, including those serviced by the write queue
system.mem_ctrls.writeBursts                      390                       # Number of DRAM write bursts, including those merged in the write queue
system.mem_ctrls.servicedByWrQ                    303                       # Number of DRAM read bursts serviced by the write queue
system.mem_ctrls.mergedWrBursts                   283                       # Number of DRAM write bursts merged with an existing one
system.mem_ctrls.neitherReadNorWriteReqs            0                       # Number of requests that are neither read nor write
system.mem_ctrls.perBankRdBursts::0                57                       # Per bank write bursts
system.mem_ctrls.perBankRdBursts::1                 2                       # Per bank write bursts
system.mem_ctrls.perBankRdBursts::2                24                       # Per bank write bursts
system.mem_ctrls.perBankRdBursts::3                52                       # Per bank write bursts
system.mem_ctrls.perBankRdBursts::4                19                       # Per bank write bursts
system.mem_ctrls.perBankRdBursts::5                30                       # Per bank write bursts
system.mem_ctrls.perBankRdBursts::6                55                       # Per bank write bursts
system.mem_ctrls.perBankRdBursts::7                47                       # Per bank write bursts
system.mem_ctrls.perBankRdBursts::8                77                       # Per bank write bursts
system.mem_ctrls.perBankRdBursts::9                83                       # Per bank write bursts
system.mem_ctrls.perBankRdBursts::10               38                       # Per bank write bursts
system.mem_ctrls.perBankRdBursts::11               80                       # Per bank write bursts
system.mem_ctrls.perBankRdBursts::12               16                       # Per bank write bursts
system.mem_ctrls.perBankRdBursts::13                7                       # Per bank write bursts
system.mem_ctrls.perBankRdBursts::14                8                       # Per bank write bursts
system.mem_ctrls.perBankRdBursts::15                0                       # Per bank write bursts
system.mem_ctrls.perBankWrBursts::0                12                       # Per bank write bursts
system.mem_ctrls.perBankWrBursts::1                 1                       # Per bank write bursts
system.mem_ctrls.perBankWrBursts::2                 9                       # Per bank write bursts
system.mem_ctrls.perBankWrBursts::3                 4                       # Per bank write bursts
system.mem_ctrls.perBankWrBursts::4                 0                       # Per bank write bursts
system.mem_ctrls.perBankWrBursts::5                 1                       # Per bank write bursts
system.mem_ctrls.perBankWrBursts::6                 1                       # Per bank write bursts
system.mem_ctrls.perBankWrBursts::7                 8                       # Per bank write bursts
system.mem_ctrls.perBankWrBursts::8                22                       # Per bank write bursts
system.mem_ctrls.perBankWrBursts::9                 8                       # Per bank write bursts
system.mem_ctrls.perBankWrBursts::10                0                       # Per bank write bursts
system.mem_ctrls.perBankWrBursts::11               17                       # Per bank write bursts
system.mem_ctrls.perBankWrBursts::12                0                       # Per bank write bursts
system.mem_ctrls.perBankWrBursts::13                1                       # Per bank write bursts
system.mem_ctrls.perBankWrBursts::14                0                       # Per bank write bursts
system.mem_ctrls.perBankWrBursts::15                0                       # Per bank write bursts
system.mem_ctrls.avgRdQLen                       1.90                       # Average read queue length when enqueuing
system.mem_ctrls.avgWrQLen                      21.05                       # Average write queue length when enqueuing
system.mem_ctrls.totQLat                      4329500                       # Total ticks spent queuing
system.mem_ctrls.totBusLat                    2975000                       # Total ticks spent in databus transfers
system.mem_ctrls.totMemAccLat                15485750                       # Total ticks spent from burst creation until serviced by the DRAM
system.mem_ctrls.avgQLat                      7276.47                       # Average queueing delay per DRAM burst
system.mem_ctrls.avgBusLat                    5000.00                       # Average bus latency per DRAM burst
system.mem_ctrls.avgMemAccLat                26026.47                       # Average memory access latency per DRAM burst
system.mem_ctrls.numRdRetry                         0                       # Number of times read queue was full causing retry
system.mem_ctrls.numWrRetry                         0                       # Number of times write queue was full causing retry
system.mem_ctrls.readRowHits                      475                       # Number of row buffer hits during reads
system.mem_ctrls.writeRowHits                      73                       # Number of row buffer hits during writes
system.mem_ctrls.readRowHitRate                 79.83                       # Row buffer hit rate for reads
system.mem_ctrls.writeRowHitRate                68.22                       # Row buffer hit rate for writes
system.mem_ctrls.readPktSize::0                     0                       # Read request sizes (log2)
system.mem_ctrls.readPktSize::1                     0                       # Read request sizes (log2)
system.mem_ctrls.readPktSize::2                     0                       # Read request sizes (log2)
system.mem_ctrls.readPktSize::3                     0                       # Read request sizes (log2)
system.mem_ctrls.readPktSize::4                     0                       # Read request sizes (log2)
system.mem_ctrls.readPktSize::5                     0                       # Read request sizes (log2)
system.mem_ctrls.readPktSize::6                   898                       # Read request sizes (log2)
system.mem_ctrls.writePktSize::0                    0                       # Write request sizes (log2)
system.mem_ctrls.writePktSize::1                    0                       # Write request sizes (log2)
system.mem_ctrls.writePktSize::2                    0                       # Write request sizes (log2)
system.mem_ctrls.writePktSize::3                    0                       # Write request sizes (log2)
system.mem_ctrls.writePktSize::4                    0                       # Write request sizes (log2)
system.mem_ctrls.writePktSize::5                    0                       # Write request sizes (log2)
system.mem_ctrls.writePktSize::6                  390                       # Write request sizes (log2)
system.mem_ctrls.rdQLenPdf::0                     502                       # What read queue length does an incoming req see
system.mem_ctrls.rdQLenPdf::1                      86                       # What read queue length does an incoming req see
system.mem_ctrls.rdQLenPdf::2                       7                       # What read queue length does an incoming req see
system.mem_ctrls.rdQLenPdf::3                       0                       # What read queue length does an incoming req see
system.mem_ctrls.rdQLenPdf::4                       0                       # What read queue length does an incoming req see
system.mem_ctrls.rdQLenPdf::5                       0                       # What read queue length does an incoming req see
system.mem_ctrls.rdQLenPdf::6                       0                       # What read queue length does an incoming req see
system.mem_ctrls.rdQLenPdf::7                       0                       # What read queue length does an incoming req see
system.mem_ctrls.rdQLenPdf::8                       0                       # What read queue length does an incoming req see
system.mem_ctrls.rdQLenPdf::9                       0                       # What read queue length does an incoming req see
system.mem_ctrls.rdQLenPdf::10                      0                       # What read queue length does an incoming req see
system.mem_ctrls.rdQLenPdf::11                      0                       # What read queue length does an incoming req see
system.mem_ctrls.rdQLenPdf::12                      0                       # What read queue length does an incoming req see
system.mem_ctrls.rdQLenPdf::13                      0                       # What read queue length does an incoming req see
system.mem_ctrls.rdQLenPdf::14                      0                       # What read queue length does an incoming req see
system.mem_ctrls.rdQLenPdf::15                      0                       # What read queue length does an incoming req see
system.mem_ctrls.rdQLenPdf::16                      0                       # What read queue length does an incoming req see
system.mem_ctrls.rdQLenPdf::17                      0                       # What read queue length does an incoming req see
system.mem_ctrls.rdQLenPdf::18                      0                       # What read queue length does an incoming req see
system.mem_ctrls.rdQLenPdf::19                      0                       # What read queue length does an incoming req see
system.mem_ctrls.rdQLenPdf::20                      0                       # What read queue length does an incoming req see
system.mem_ctrls.rdQLenPdf::21                      0                       # What read queue length does an incoming req see
system.mem_ctrls.rdQLenPdf::22                      0                       # What read queue length does an incoming req see
system.mem_ctrls.rdQLenPdf::23                      0                       # What read queue length does an incoming req see
system.mem_ctrls.rdQLenPdf::24                      0                       # What read queue length does an incoming req see
system.mem_ctrls.rdQLenPdf::25                      0                       # What read queue length does an incoming req see
system.mem_ctrls.rdQLenPdf::26                      0                       # What read queue length does an incoming req see
system.mem_ctrls.rdQLenPdf::27                      0                       # What read queue length does an incoming req see
system.mem_ctrls.rdQLenPdf::28                      0                       # What read queue length does an incoming req see
system.mem_ctrls.rdQLenPdf::29                      0                       # What read queue length does an incoming req see
system.mem_ctrls.rdQLenPdf::30                      0                       # What read queue length does an incoming req see
system.mem_ctrls.rdQLenPdf::31                      0                       # What read queue length does an incoming req see
system.mem_ctrls.wrQLenPdf::0                       1                       # What write queue length does an incoming req see
system.mem_ctrls.wrQLenPdf::1                       1                       # What write queue length does an incoming req see
system.mem_ctrls.wrQLenPdf::2                       1                       # What write queue length does an incoming req see
system.mem_ctrls.wrQLenPdf::3                       1                       # What write queue length does an incoming req see
system.mem_ctrls.wrQLenPdf::4                       1                       # What write queue length does an incoming req see
system.mem_ctrls.wrQLenPdf::5                       1                       # What write queue length does an incoming req see
system.mem_ctrls.wrQLenPdf::6                       1                       # What write queue length does an incoming req see
system.mem_ctrls.wrQLenPdf::7                       1                       # What write queue length does an incoming req see
system.mem_ctrls.wrQLenPdf::8                       1                       # What write queue length does an incoming req see
system.mem_ctrls.wrQLenPdf::9                       1                       # What write queue length does an incoming req see
system.mem_ctrls.wrQLenPdf::10                      1                       # What write queue length does an incoming req see
system.mem_ctrls.wrQLenPdf::11                      1                       # What write queue length does an incoming req see
system.mem_ctrls.wrQLenPdf::12                      1                       # What write queue length does an incoming req see
system.mem_ctrls.wrQLenPdf::13                      1                       # What write queue length does an incoming req see
system.mem_ctrls.wrQLenPdf::14                      1                       # What write queue length does an incoming req see
system.mem_ctrls.wrQLenPdf::15                      2                       # What write queue length does an incoming req see
system.mem_ctrls.wrQLenPdf::16                      2                       # What write queue length does an incoming req see
system.mem_ctrls.wrQLenPdf::17                      6                       # What write queue length does an incoming req see
system.mem_ctrls.wrQLenPdf::18                      7                       # What write queue length does an incoming req see
system.mem_ctrls.wrQLenPdf::19                      6                       # What write queue length does an incoming req see
system.mem_ctrls.wrQLenPdf::20                      6                       # What write queue length does an incoming req see
system.mem_ctrls.wrQLenPdf::21                      6                       # What write queue length does an incoming req see
system.mem_ctrls.wrQLenPdf::22                      6                       # What write queue length does an incoming req see
system.mem_ctrls.wrQLenPdf::23                      6                       # What write queue length does an incoming req see
system.mem_ctrls.wrQLenPdf::24                      5                       # What write queue length does an incoming req see
system.mem_ctrls.wrQLenPdf::25                      5                       # What write queue length does an incoming req see
system.mem_ctrls.wrQLenPdf::26                      5                       # What write queue length does an incoming req see
system.mem_ctrls.wrQLenPdf::27                      5                       # What write queue length does an incoming req see
system.mem_ctrls.wrQLenPdf::28                      5                       # What write queue length does an incoming req see
system.mem_ctrls.wrQLenPdf::29                      5                       # What write queue length does an incoming req see
system.mem_ctrls.wrQLenPdf::30                      5                       # What write queue length does an incoming req see
system.mem_ctrls.wrQLenPdf::31                      5                       # What write queue length does an incoming req see
system.mem_ctrls.wrQLenPdf::32                      5                       # What write queue length does an incoming req see
system.mem_ctrls.wrQLenPdf::33                      0                       # What write queue length does an incoming req see
system.mem_ctrls.wrQLenPdf::34                      0                       # What write queue length does an incoming req see
system.mem_ctrls.wrQLenPdf::35                      0                       # What write queue length does an incoming req see
system.mem_ctrls.wrQLenPdf::36                      0                       # What write queue length does an incoming req see
system.mem_ctrls.wrQLenPdf::37                      0                       # What write queue length does an incoming req see
system.mem_ctrls.wrQLenPdf::38                      0                       # What write queue length does an incoming req see
system.mem_ctrls.wrQLenPdf::39                      0                       # What write queue length does an incoming req see
system.mem_ctrls.wrQLenPdf::40                      0                       # What write queue length does an incoming req see
system.mem_ctrls.wrQLenPdf::41                      0                       # What write queue length does an incoming req see
system.mem_ctrls.wrQLenPdf::42                      0                       # What write queue length does an incoming req see
system.mem_ctrls.wrQLenPdf::43                      0                       # What write queue length does an incoming req see
system.mem_ctrls.wrQLenPdf::44                      0                       # What write queue length does an incoming req see
system.mem_ctrls.wrQLenPdf::45                      0                       # What write queue length does an incoming req see
system.mem_ctrls.wrQLenPdf::46                      0                       # What write queue length does an incoming req see
system.mem_ctrls.wrQLenPdf::47                      0                       # What write queue length does an incoming req see
system.mem_ctrls.wrQLenPdf::48                      0                       # What write queue length does an incoming req see
system.mem_ctrls.wrQLenPdf::49                      0                       # What write queue length does an incoming req see
system.mem_ctrls.wrQLenPdf::50                      0                       # What write queue length does an incoming req see
system.mem_ctrls.wrQLenPdf::51                      0                       # What write queue length does an incoming req see
system.mem_ctrls.wrQLenPdf::52                      0                       # What write queue length does an incoming req see
system.mem_ctrls.wrQLenPdf::53                      0                       # What write queue length does an incoming req see
system.mem_ctrls.wrQLenPdf::54                      0                       # What write queue length does an incoming req see
system.mem_ctrls.wrQLenPdf::55                      0                       # What write queue length does an incoming req see
system.mem_ctrls.wrQLenPdf::56                      0                       # What write queue length does an incoming req see
system.mem_ctrls.wrQLenPdf::57                      0                       # What write queue length does an incoming req see
system.mem_ctrls.wrQLenPdf::58                      0                       # What write queue length does an incoming req see
system.mem_ctrls.wrQLenPdf::59                      0                       # What write queue length does an incoming req see
system.mem_ctrls.wrQLenPdf::60                      0                       # What write queue length does an incoming req see
system.mem_ctrls.wrQLenPdf::61                      0                       # What write queue length does an incoming req see
system.mem_ctrls.wrQLenPdf::62                      0                       # What write queue length does an incoming req see
system.mem_ctrls.wrQLenPdf::63                      0                       # What write queue length does an incoming req see
system.mem_ctrls.bytesPerActivate::samples          121                       # Bytes accessed per row activation
system.mem_ctrls.bytesPerActivate::mean    339.041322                       # Bytes accessed per row activation
system.mem_ctrls.bytesPerActivate::gmean   227.312924                       # Bytes accessed per row activation
system.mem_ctrls.bytesPerActivate::stdev   309.110131                       # Bytes accessed per row activation
system.mem_ctrls.bytesPerActivate::0-127           26     21.49%     21.49% # Bytes accessed per row activation
system.mem_ctrls.bytesPerActivate::128-255           33     27.27%     48.76% # Bytes accessed per row activation
system.mem_ctrls.bytesPerActivate::256-383           26     21.49%     70.25% # Bytes accessed per row activation
system.mem_ctrls.bytesPerActivate::384-511            9      7.44%     77.69% # Bytes accessed per row activation
system.mem_ctrls.bytesPerActivate::512-639            5      4.13%     81.82% # Bytes accessed per row activation
system.mem_ctrls.bytesPerActivate::640-767            4      3.31%     85.12% # Bytes accessed per row activation
system.mem_ctrls.bytesPerActivate::768-895            2      1.65%     86.78% # Bytes accessed per row activation
system.mem_ctrls.bytesPerActivate::896-1023            3      2.48%     89.26% # Bytes accessed per row activation
system.mem_ctrls.bytesPerActivate::1024-1151           13     10.74%    100.00% # Bytes accessed per row activation
system.mem_ctrls.bytesPerActivate::total          121                       # Bytes accessed per row activation
system.mem_ctrls.rdPerTurnAround::samples            5                       # Reads before turning the bus around for writes
system.mem_ctrls.rdPerTurnAround::mean     114.400000                       # Reads before turning the bus around for writes
system.mem_ctrls.rdPerTurnAround::gmean     69.052048                       # Reads before turning the bus around for writes
system.mem_ctrls.rdPerTurnAround::stdev    152.313164                       # Reads before turning the bus around for writes
system.mem_ctrls.rdPerTurnAround::16-31             1     20.00%     20.00% # Reads before turning the bus around for writes
system.mem_ctrls.rdPerTurnAround::32-47             1     20.00%     40.00% # Reads before turning the bus around for writes
system.mem_ctrls.rdPerTurnAround::48-63             1     20.00%     60.00% # Reads before turning the bus around for writes
system.mem_ctrls.rdPerTurnAround::64-79             1     20.00%     80.00% # Reads before turning the bus around for writes
system.mem_ctrls.rdPerTurnAround::384-399            1     20.00%    100.00% # Reads before turning the bus around for writes
system.mem_ctrls.rdPerTurnAround::total             5                       # Reads before turning the bus around for writes
system.mem_ctrls.wrPerTurnAround::samples            5                       # Writes before turning the bus around for reads
system.mem_ctrls.wrPerTurnAround::mean      16.800000                       # Writes before turning the bus around for reads
system.mem_ctrls.wrPerTurnAround::gmean     16.730233                       # Writes before turning the bus around for reads
system.mem_ctrls.wrPerTurnAround::stdev      1.788854                       # Writes before turning the bus around for reads
system.mem_ctrls.wrPerTurnAround::16                4     80.00%     80.00% # Writes before turning the bus around for reads
system.mem_ctrls.wrPerTurnAround::20                1     20.00%    100.00% # Writes before turning the bus around for reads
system.mem_ctrls.wrPerTurnAround::total             5                       # Writes before turning the bus around for reads
system.mem_ctrls.bytesReadDRAM                  38080                       # Total number of bytes read from DRAM
system.mem_ctrls.bytesReadWrQ                   19392                       # Total number of bytes read from write queue
system.mem_ctrls.bytesWritten                    5376                       # Total number of bytes written to DRAM
system.mem_ctrls.bytesReadSys                   57472                       # Total read bytes from the system interface side
system.mem_ctrls.bytesWrittenSys                24960                       # Total written bytes from the system interface side
system.mem_ctrls.avgRdBW                       123.06                       # Average DRAM read bandwidth in MiByte/s
system.mem_ctrls.avgWrBW                        17.37                       # Average achieved write bandwidth in MiByte/s
system.mem_ctrls.avgRdBWSys                    185.72                       # Average system read bandwidth in MiByte/s
system.mem_ctrls.avgWrBWSys                     80.66                       # Average system write bandwidth in MiByte/s
system.mem_ctrls.peakBW                      12800.00                       # Theoretical peak bandwidth in MiByte/s
system.mem_ctrls.busUtil                         1.10                       # Data bus utilization in percentage
system.mem_ctrls.busUtilRead                     0.96                       # Data bus utilization in percentage for reads
system.mem_ctrls.busUtilWrite                    0.14                       # Data bus utilization in percentage for writes
system.mem_ctrls.totGap                     309390500                       # Total gap between requests
system.mem_ctrls.avgGap                     240210.02                       # Average gap between requests
system.mem_ctrls.masterReadBytes::.cpu.inst        26624                       # Per-master bytes read from memory
system.mem_ctrls.masterReadBytes::.cpu.data        11456                       # Per-master bytes read from memory
system.mem_ctrls.masterWriteBytes::.writebacks         5376                       # Per-master bytes write to memory
system.mem_ctrls.masterReadRate::.cpu.inst 86036794.431392565370                       # Per-master bytes read from memory rate (Bytes/sec)
system.mem_ctrls.masterReadRate::.cpu.data 37020639.911584787071                       # Per-master bytes read from memory rate (Bytes/sec)
system.mem_ctrls.masterWriteRate::.writebacks 17372814.260185040534                       # Per-master bytes write to memory rate (Bytes/sec)
system.mem_ctrls.masterReadAccesses::.cpu.inst          718                       # Per-master read serviced memory accesses
system.mem_ctrls.masterReadAccesses::.cpu.data          180                       # Per-master read serviced memory accesses
system.mem_ctrls.masterWriteAccesses::.writebacks          390                       # Per-master write serviced memory accesses
system.mem_ctrls.masterReadTotalLat::.cpu.inst     10369750                       # Per-master read total memory access latency
system.mem_ctrls.masterReadTotalLat::.cpu.data      5116000                       # Per-master read total memory access latency
system.mem_ctrls.masterWriteTotalLat::.writebacks   3711384250                       # Per-master write total memory access latency
system.mem_ctrls.masterReadAvgLat::.cpu.inst     14442.55                       # Per-master read average memory access latency
system.mem_ctrls.masterReadAvgLat::.cpu.data     28422.22                       # Per-master read average memory access latency
system.mem_ctrls.masterWriteAvgLat::.writebacks   9516369.87                       # Per-master write average memory access latency
system.mem_ctrls.pageHitRate                    78.06                       # Row buffer hit rate, read and write combined
system.mem_ctrls.rank1.actEnergy               542640                       # Energy for activate commands per rank (pJ)
system.mem_ctrls.rank1.preEnergy               273240                       # Energy for precharge commands per rank (pJ)
system.mem_ctrls.rank1.readEnergy             2206260                       # Energy for read commands per rank (pJ)
system.mem_ctrls.rank1.writeEnergy             250560                       # Energy for write commands per rank (pJ)
system.mem_ctrls.rank1.refreshEnergy     23970960.000000                       # Energy for refresh commands per rank (pJ)
system.mem_ctrls.rank1.actBackEnergy         22782330                       # Energy for active background per rank (pJ)
system.mem_ctrls.rank1.preBackEnergy         99643680                       # Energy for precharge background per rank (pJ)
system.mem_ctrls.rank1.actPowerDownEnergy            0                       # Energy for active power-down per rank (pJ)
system.mem_ctrls.rank1.prePowerDownEnergy            0                       # Energy for precharge power-down per rank (pJ)
system.mem_ctrls.rank1.selfRefreshEnergy            0                       # Energy for self refresh per rank (pJ)
system.mem_ctrls.rank1.totalEnergy          149669670                       # Total energy per rank (pJ)
system.mem_ctrls.rank1.averagePower        483.665063                       # Core power per rank (mW)
system.mem_ctrls.rank1.totalIdleTime                0                       # Total Idle time Per DRAM Rank
system.mem_ctrls.rank1.memoryStateTime::IDLE    258855250                       # Time in different power states
system.mem_ctrls.rank1.memoryStateTime::REF     10140000                       # Time in different power states
system.mem_ctrls.rank1.memoryStateTime::SREF            0                       # Time in different power states
system.mem_ctrls.rank1.memoryStateTime::PRE_PDN            0                       # Time in different power states
system.mem_ctrls.rank1.memoryStateTime::ACT     40453750                       # Time in different power states
system.mem_ctrls.rank1.memoryStateTime::ACT_PDN            0                       # Time in different power states
system.mem_ctrls.rank0.actEnergy               392700                       # Energy for activate commands per rank (pJ)
system.mem_ctrls.rank0.preEnergy               185955                       # Energy for precharge commands per rank (pJ)
system.mem_ctrls.rank0.readEnergy             2042040                       # Energy for read commands per rank (pJ)
system.mem_ctrls.rank0.writeEnergy             187920                       # Energy for write commands per rank (pJ)
system.mem_ctrls.rank0.refreshEnergy     23970960.000000                       # Energy for refresh commands per rank (pJ)
system.mem_ctrls.rank0.actBackEnergy         22116000                       # Energy for active background per rank (pJ)
system.mem_ctrls.rank0.preBackEnergy        100204800                       # Energy for precharge background per rank (pJ)
system.mem_ctrls.rank0.actPowerDownEnergy            0                       # Energy for active power-down per rank (pJ)
system.mem_ctrls.rank0.prePowerDownEnergy            0                       # Energy for precharge power-down per rank (pJ)
system.mem_ctrls.rank0.selfRefreshEnergy            0                       # Energy for self refresh per rank (pJ)
system.mem_ctrls.rank0.totalEnergy          149100375                       # Total energy per rank (pJ)
system.mem_ctrls.rank0.averagePower        481.825357                       # Core power per rank (mW)
system.mem_ctrls.rank0.totalIdleTime                0                       # Total Idle time Per DRAM Rank
system.mem_ctrls.rank0.memoryStateTime::IDLE    260315750                       # Time in different power states
system.mem_ctrls.rank0.memoryStateTime::REF     10140000                       # Time in different power states
system.mem_ctrls.rank0.memoryStateTime::SREF            0                       # Time in different power states
system.mem_ctrls.rank0.memoryStateTime::PRE_PDN            0                       # Time in different power states
system.mem_ctrls.rank0.memoryStateTime::ACT     38993250                       # Time in different power states
system.mem_ctrls.rank0.memoryStateTime::ACT_PDN            0                       # Time in different power states
system.cpu_clk_domain.clock                       500                       # Clock period in ticks
system.cpu.pwrStateResidencyTicks::ON       309449000                       # Cumulative time (in ticks) in various power states
system.cpu.icache.pwrStateResidencyTicks::UNDEFINED    309449000                       # Cumulative time (in ticks) in various power states
system.cpu.icache.demand_hits::.cpu.inst       173318                       # number of demand (read+write) hits
system.cpu.icache.demand_hits::total           173318                       # number of demand (read+write) hits
system.cpu.icache.overall_hits::.cpu.inst       173318                       # number of overall hits
system.cpu.icache.overall_hits::total          173318                       # number of overall hits
system.cpu.icache.demand_misses::.cpu.inst          718                       # number of demand (read+write) misses
system.cpu.icache.demand_misses::total            718                       # number of demand (read+write) misses
system.cpu.icache.overall_misses::.cpu.inst          718                       # number of overall misses
system.cpu.icache.overall_misses::total           718                       # number of overall misses
system.cpu.icache.demand_miss_latency::.cpu.inst     30961000                       # number of demand (read+write) miss cycles
system.cpu.icache.demand_miss_latency::total     30961000                       # number of demand (read+write) miss cycles
system.cpu.icache.overall_miss_latency::.cpu.inst     30961000                       # number of overall miss cycles
system.cpu.icache.overall_miss_latency::total     30961000                       # number of overall miss cycles
system.cpu.icache.demand_accesses::.cpu.inst       174036                       # number of demand (read+write) accesses
system.cpu.icache.demand_accesses::total       174036                       # number of demand (read+write) accesses
system.cpu.icache.overall_accesses::.cpu.inst       174036                       # number of overall (read+write) accesses
system.cpu.icache.overall_accesses::total       174036                       # number of overall (read+write) accesses
system.cpu.icache.demand_miss_rate::.cpu.inst     0.004126                       # miss rate for demand accesses
system.cpu.icache.demand_miss_rate::total     0.004126                       # miss rate for demand accesses
system.cpu.icache.overall_miss_rate::.cpu.inst     0.004126                       # miss rate for overall accesses
system.cpu.icache.overall_miss_rate::total     0.004126                       # miss rate for overall accesses
system.cpu.icache.demand_avg_miss_latency::.cpu.inst 43121.169916                       # average overall miss latency
system.cpu.icache.demand_avg_miss_latency::total 43121.169916                       # average overall miss latency
system.cpu.icache.overall_avg_miss_latency::.cpu.inst 43121.169916                       # average overall miss latency
system.cpu.icache.overall_avg_miss_latency::total 43121.169916                       # average overall miss latency
system.cpu.icache.blocked_cycles::no_mshrs            0                       # number of cycles access was blocked
system.cpu.icache.blocked_cycles::no_targets            0                       # number of cycles access was blocked
system.cpu.icache.blocked::no_mshrs                 0                       # number of cycles access was blocked
system.cpu.icache.blocked::no_targets               0                       # number of cycles access was blocked
system.cpu.icache.avg_blocked_cycles::no_mshrs          nan                       # average number of cycles each access was blocked
system.cpu.icache.avg_blocked_cycles::no_targets          nan                       # average number of cycles each access was blocked
system.cpu.icache.writebacks::.writebacks          394                       # number of writebacks
system.cpu.icache.writebacks::total               394                       # number of writebacks
system.cpu.icache.demand_mshr_misses::.cpu.inst          718                       # number of demand (read+write) MSHR misses
system.cpu.icache.demand_mshr_misses::total          718                       # number of demand (read+write) MSHR misses
system.cpu.icache.overall_mshr_misses::.cpu.inst          718                       # number of overall MSHR misses
system.cpu.icache.overall_mshr_misses::total          718                       # number of overall MSHR misses
system.cpu.icache.demand_mshr_miss_latency::.cpu.inst     30243000                       # number of demand (read+write) MSHR miss cycles
system.cpu.icache.demand_mshr_miss_latency::total     30243000                       # number of demand (read+write) MSHR miss cycles
system.cpu.icache.overall_mshr_miss_latency::.cpu.inst     30243000                       # number of overall MSHR miss cycles
system.cpu.icache.overall_mshr_miss_latency::total     30243000                       # number of overall MSHR miss cycles
system.cpu.icache.demand_mshr_miss_rate::.cpu.inst     0.004126                       # mshr miss rate for demand accesses
system.cpu.icache.demand_mshr_miss_rate::total     0.004126                       # mshr miss rate for demand accesses
system.cpu.icache.overall_mshr_miss_rate::.cpu.inst     0.004126                       # mshr miss rate for overall accesses
system.cpu.icache.overall_mshr_miss_rate::total     0.004126                       # mshr miss rate for overall accesses
system.cpu.icache.demand_avg_mshr_miss_latency::.cpu.inst 42121.169916                       # average overall mshr miss latency
system.cpu.icache.demand_avg_mshr_miss_latency::total 42121.169916                       # average overall mshr miss latency
system.cpu.icache.overall_avg_mshr_miss_latency::.cpu.inst 42121.169916                       # average overall mshr miss latency
system.cpu.icache.overall_avg_mshr_miss_latency::total 42121.169916                       # average overall mshr miss latency
system.cpu.icache.replacements                    394                       # number of replacements
system.cpu.icache.ReadReq_hits::.cpu.inst       173318                       # number of ReadReq hits
system.cpu.icache.ReadReq_hits::total          173318                       # number of ReadReq hits
system.cpu.icache.ReadReq_misses::.cpu.inst          718                       # number of ReadReq misses
system.cpu.icache.ReadReq_misses::total           718                       # number of ReadReq misses
system.cpu.icache.ReadReq_miss_latency::.cpu.inst     30961000                       # number of ReadReq miss cycles
system.cpu.icache.ReadReq_miss_latency::total     30961000                       # number of ReadReq miss cycles
system.cpu.icache.ReadReq_accesses::.cpu.inst       174036                       # number of ReadReq accesses(hits+misses)
system.cpu.icache.ReadReq_accesses::total       174036                       # number of ReadReq accesses(hits+misses)
system.cpu.icache.ReadReq_miss_rate::.cpu.inst     0.004126                       # miss rate for ReadReq accesses
system.cpu.icache.ReadReq_miss_rate::total     0.004126                       # miss rate for ReadReq accesses
system.cpu.icache.ReadReq_avg_miss_latency::.cpu.inst 43121.169916                       # average ReadReq miss latency
system.cpu.icache.ReadReq_avg_miss_latency::total 43121.169916                       # average ReadReq miss latency
system.cpu.icache.ReadReq_mshr_misses::.cpu.inst          718                       # number of ReadReq MSHR misses
system.cpu.icache.ReadReq_mshr_misses::total          718                       # number of ReadReq MSHR misses
system.cpu.icache.ReadReq_mshr_miss_latency::.cpu.inst     30243000                       # number of ReadReq MSHR miss cycles
system.cpu.icache.ReadReq_mshr_miss_latency::total     30243000                       # number of ReadReq MSHR miss cycles
system.cpu.icache.ReadReq_mshr_miss_rate::.cpu.inst     0.004126                       # mshr miss rate for ReadReq accesses
system.cpu.icache.ReadReq_mshr_miss_rate::total     0.004126                       # mshr miss rate for ReadReq accesses
system.cpu.icache.ReadReq_avg_mshr_miss_latency::.cpu.inst 42121.169916                       # average ReadReq mshr miss latency
system.cpu.icache.ReadReq_avg_mshr_miss_latency::total 42121.169916                       # average ReadReq mshr miss latency
system.cpu.icache.tags.pwrStateResidencyTicks::UNDEFINED    309449000                       # Cumulative time (in ticks) in various power states
system.cpu.icache.tags.tagsinuse           286.250865                       # Cycle average of tags in use
system.cpu.icache.tags.total_refs              174036                       # Total number of references to valid blocks.
system.cpu.icache.tags.sampled_refs               718                       # Sample count of references to valid blocks.
system.cpu.icache.tags.avg_refs            242.389972                       # Average number of references to valid blocks.
system.cpu.icache.tags.warmup_cycle             77000                       # Cycle when the warmup percentage was hit.
system.cpu.icache.tags.occ_blocks::.cpu.inst   286.250865                       # Average occupied blocks per requestor
system.cpu.icache.tags.occ_percent::.cpu.inst     0.559084                       # Average percentage of cache occupancy
system.cpu.icache.tags.occ_percent::total     0.559084                       # Average percentage of cache occupancy
system.cpu.icache.tags.occ_task_id_blocks::1024          324                       # Occupied blocks per task id
system.cpu.icache.tags.age_task_id_blocks_1024::0           46                       # Occupied blocks per task id
system.cpu.icache.tags.age_task_id_blocks_1024::2          278                       # Occupied blocks per task id
system.cpu.icache.tags.occ_task_id_percent::1024     0.632812                       # Percentage of cache occupancy per task id
system.cpu.icache.tags.tag_accesses            348790                       # Number of tag accesses
system.cpu.icache.tags.data_accesses           348790                       # Number of data accesses
system.cpu.dtb.walker.pwrStateResidencyTicks::UNDEFINED    309449000                       # Cumulative time (in ticks) in various power states
system.cpu.dtb.stage2_mmu.stage2_tlb.walker.pwrStateResidencyTicks::UNDEFINED    309449000                       # Cumulative time (in ticks) in various power states
system.cpu.dcache.pwrStateResidencyTicks::UNDEFINED    309449000                       # Cumulative time (in ticks) in various power states
system.cpu.dcache.demand_hits::.cpu.data       178836                       # number of demand (read+write) hits
system.cpu.dcache.demand_hits::total           178836                       # number of demand (read+write) hits
system.cpu.dcache.overall_hits::.cpu.data       178858                       # number of overall hits
system.cpu.dcache.overall_hits::total          178858                       # number of overall hits
system.cpu.dcache.demand_misses::.cpu.data          222                       # number of demand (read+write) misses
system.cpu.dcache.demand_misses::total            222                       # number of demand (read+write) misses
system.cpu.dcache.overall_misses::.cpu.data          236                       # number of overall misses
system.cpu.dcache.overall_misses::total           236                       # number of overall misses
system.cpu.dcache.demand_miss_latency::.cpu.data     13598500                       # number of demand (read+write) miss cycles
system.cpu.dcache.demand_miss_latency::total     13598500                       # number of demand (read+write) miss cycles
system.cpu.dcache.overall_miss_latency::.cpu.data     13598500                       # number of overall miss cycles
system.cpu.dcache.overall_miss_latency::total     13598500                       # number of overall miss cycles
system.cpu.dcache.demand_accesses::.cpu.data       179058                       # number of demand (read+write) accesses
system.cpu.dcache.demand_accesses::total       179058                       # number of demand (read+write) accesses
system.cpu.dcache.overall_accesses::.cpu.data       179094                       # number of overall (read+write) accesses
system.cpu.dcache.overall_accesses::total       179094                       # number of overall (read+write) accesses
system.cpu.dcache.demand_miss_rate::.cpu.data     0.001240                       # miss rate for demand accesses
system.cpu.dcache.demand_miss_rate::total     0.001240                       # miss rate for demand accesses
system.cpu.dcache.overall_miss_rate::.cpu.data     0.001318                       # miss rate for overall accesses
system.cpu.dcache.overall_miss_rate::total     0.001318                       # miss rate for overall accesses
system.cpu.dcache.demand_avg_miss_latency::.cpu.data 61254.504505                       # average overall miss latency
system.cpu.dcache.demand_avg_miss_latency::total 61254.504505                       # average overall miss latency
system.cpu.dcache.overall_avg_miss_latency::.cpu.data 57620.762712                       # average overall miss latency
system.cpu.dcache.overall_avg_miss_latency::total 57620.762712                       # average overall miss latency
system.cpu.dcache.blocked_cycles::no_mshrs            0                       # number of cycles access was blocked
system.cpu.dcache.blocked_cycles::no_targets            0                       # number of cycles access was blocked
system.cpu.dcache.blocked::no_mshrs                 0                       # number of cycles access was blocked
system.cpu.dcache.blocked::no_targets               0                       # number of cycles access was blocked
system.cpu.dcache.avg_blocked_cycles::no_mshrs          nan                       # average number of cycles each access was blocked
system.cpu.dcache.avg_blocked_cycles::no_targets          nan                       # average number of cycles each access was blocked
system.cpu.dcache.writebacks::.writebacks            1                       # number of writebacks
system.cpu.dcache.writebacks::total                 1                       # number of writebacks
system.cpu.dcache.demand_mshr_hits::.cpu.data           52                       # number of demand (read+write) MSHR hits
system.cpu.dcache.demand_mshr_hits::total           52                       # number of demand (read+write) MSHR hits
system.cpu.dcache.overall_mshr_hits::.cpu.data           52                       # number of overall MSHR hits
system.cpu.dcache.overall_mshr_hits::total           52                       # number of overall MSHR hits
system.cpu.dcache.demand_mshr_misses::.cpu.data          170                       # number of demand (read+write) MSHR misses
system.cpu.dcache.demand_mshr_misses::total          170                       # number of demand (read+write) MSHR misses
system.cpu.dcache.overall_mshr_misses::.cpu.data          180                       # number of overall MSHR misses
system.cpu.dcache.overall_mshr_misses::total          180                       # number of overall MSHR misses
system.cpu.dcache.demand_mshr_miss_latency::.cpu.data     10230500                       # number of demand (read+write) MSHR miss cycles
system.cpu.dcache.demand_mshr_miss_latency::total     10230500                       # number of demand (read+write) MSHR miss cycles
system.cpu.dcache.overall_mshr_miss_latency::.cpu.data     10834500                       # number of overall MSHR miss cycles
system.cpu.dcache.overall_mshr_miss_latency::total     10834500                       # number of overall MSHR miss cycles
system.cpu.dcache.demand_mshr_miss_rate::.cpu.data     0.000949                       # mshr miss rate for demand accesses
system.cpu.dcache.demand_mshr_miss_rate::total     0.000949                       # mshr miss rate for demand accesses
system.cpu.dcache.overall_mshr_miss_rate::.cpu.data     0.001005                       # mshr miss rate for overall accesses
system.cpu.dcache.overall_mshr_miss_rate::total     0.001005                       # mshr miss rate for overall accesses
system.cpu.dcache.demand_avg_mshr_miss_latency::.cpu.data 60179.411765                       # average overall mshr miss latency
system.cpu.dcache.demand_avg_mshr_miss_latency::total 60179.411765                       # average overall mshr miss latency
system.cpu.dcache.overall_avg_mshr_miss_latency::.cpu.data 60191.666667                       # average overall mshr miss latency
system.cpu.dcache.overall_avg_mshr_miss_latency::total 60191.666667                       # average overall mshr miss latency
system.cpu.dcache.replacements                      1                       # number of replacements
system.cpu.dcache.ReadReq_hits::.cpu.data        86135                       # number of ReadReq hits
system.cpu.dcache.ReadReq_hits::total           86135                       # number of ReadReq hits
system.cpu.dcache.ReadReq_misses::.cpu.data          110                       # number of ReadReq misses
system.cpu.dcache.ReadReq_misses::total           110                       # number of ReadReq misses
system.cpu.dcache.ReadReq_miss_latency::.cpu.data      6753000                       # number of ReadReq miss cycles
system.cpu.dcache.ReadReq_miss_latency::total      6753000                       # number of ReadReq miss cycles
system.cpu.dcache.ReadReq_accesses::.cpu.data        86245                       # number of ReadReq accesses(hits+misses)
system.cpu.dcache.ReadReq_accesses::total        86245                       # number of ReadReq accesses(hits+misses)
system.cpu.dcache.ReadReq_miss_rate::.cpu.data     0.001275                       # miss rate for ReadReq accesses
system.cpu.dcache.ReadReq_miss_rate::total     0.001275                       # miss rate for ReadReq accesses
system.cpu.dcache.ReadReq_avg_miss_latency::.cpu.data 61390.909091                       # average ReadReq miss latency
system.cpu.dcache.ReadReq_avg_miss_latency::total 61390.909091                       # average ReadReq miss latency
system.cpu.dcache.ReadReq_mshr_hits::.cpu.data            7                       # number of ReadReq MSHR hits
system.cpu.dcache.ReadReq_mshr_hits::total            7                       # number of ReadReq MSHR hits
system.cpu.dcache.ReadReq_mshr_misses::.cpu.data          103                       # number of ReadReq MSHR misses
system.cpu.dcache.ReadReq_mshr_misses::total          103                       # number of ReadReq MSHR misses
system.cpu.dcache.ReadReq_mshr_miss_latency::.cpu.data      6178000                       # number of ReadReq MSHR miss cycles
system.cpu.dcache.ReadReq_mshr_miss_latency::total      6178000                       # number of ReadReq MSHR miss cycles
system.cpu.dcache.ReadReq_mshr_miss_rate::.cpu.data     0.001194                       # mshr miss rate for ReadReq accesses
system.cpu.dcache.ReadReq_mshr_miss_rate::total     0.001194                       # mshr miss rate for ReadReq accesses
system.cpu.dcache.ReadReq_avg_mshr_miss_latency::.cpu.data 59980.582524                       # average ReadReq mshr miss latency
system.cpu.dcache.ReadReq_avg_mshr_miss_latency::total 59980.582524                       # average ReadReq mshr miss latency
system.cpu.dcache.WriteReq_hits::.cpu.data        92701                       # number of WriteReq hits
system.cpu.dcache.WriteReq_hits::total          92701                       # number of WriteReq hits
system.cpu.dcache.WriteReq_misses::.cpu.data          112                       # number of WriteReq misses
system.cpu.dcache.WriteReq_misses::total          112                       # number of WriteReq misses
system.cpu.dcache.WriteReq_miss_latency::.cpu.data      6845500                       # number of WriteReq miss cycles
system.cpu.dcache.WriteReq_miss_latency::total      6845500                       # number of WriteReq miss cycles
system.cpu.dcache.WriteReq_accesses::.cpu.data        92813                       # number of WriteReq accesses(hits+misses)
system.cpu.dcache.WriteReq_accesses::total        92813                       # number of WriteReq accesses(hits+misses)
system.cpu.dcache.WriteReq_miss_rate::.cpu.data     0.001207                       # miss rate for WriteReq accesses
system.cpu.dcache.WriteReq_miss_rate::total     0.001207                       # miss rate for WriteReq accesses
system.cpu.dcache.WriteReq_avg_miss_latency::.cpu.data 61120.535714                       # average WriteReq miss latency
system.cpu.dcache.WriteReq_avg_miss_latency::total 61120.535714                       # average WriteReq miss latency
system.cpu.dcache.WriteReq_mshr_hits::.cpu.data           45                       # number of WriteReq MSHR hits
system.cpu.dcache.WriteReq_mshr_hits::total           45                       # number of WriteReq MSHR hits
system.cpu.dcache.WriteReq_mshr_misses::.cpu.data           67                       # number of WriteReq MSHR misses
system.cpu.dcache.WriteReq_mshr_misses::total           67                       # number of WriteReq MSHR misses
system.cpu.dcache.WriteReq_mshr_miss_latency::.cpu.data      4052500                       # number of WriteReq MSHR miss cycles
system.cpu.dcache.WriteReq_mshr_miss_latency::total      4052500                       # number of WriteReq MSHR miss cycles
system.cpu.dcache.WriteReq_mshr_miss_rate::.cpu.data     0.000722                       # mshr miss rate for WriteReq accesses
system.cpu.dcache.WriteReq_mshr_miss_rate::total     0.000722                       # mshr miss rate for WriteReq accesses
system.cpu.dcache.WriteReq_avg_mshr_miss_latency::.cpu.data 60485.074627                       # average WriteReq mshr miss latency
system.cpu.dcache.WriteReq_avg_mshr_miss_latency::total 60485.074627                       # average WriteReq mshr miss latency
system.cpu.dcache.SoftPFReq_hits::.cpu.data           22                       # number of SoftPFReq hits
system.cpu.dcache.SoftPFReq_hits::total            22                       # number of SoftPFReq hits
system.cpu.dcache.SoftPFReq_misses::.cpu.data           14                       # number of SoftPFReq misses
system.cpu.dcache.SoftPFReq_misses::total           14                       # number of SoftPFReq misses
system.cpu.dcache.SoftPFReq_accesses::.cpu.data           36                       # number of SoftPFReq accesses(hits+misses)
system.cpu.dcache.SoftPFReq_accesses::total           36                       # number of SoftPFReq accesses(hits+misses)
system.cpu.dcache.SoftPFReq_miss_rate::.cpu.data     0.388889                       # miss rate for SoftPFReq accesses
system.cpu.dcache.SoftPFReq_miss_rate::total     0.388889                       # miss rate for SoftPFReq accesses
system.cpu.dcache.SoftPFReq_mshr_misses::.cpu.data           10                       # number of SoftPFReq MSHR misses
system.cpu.dcache.SoftPFReq_mshr_misses::total           10                       # number of SoftPFReq MSHR misses
system.cpu.dcache.SoftPFReq_mshr_miss_latency::.cpu.data       604000                       # number of SoftPFReq MSHR miss cycles
system.cpu.dcache.SoftPFReq_mshr_miss_latency::total       604000                       # number of SoftPFReq MSHR miss cycles
system.cpu.dcache.SoftPFReq_mshr_miss_rate::.cpu.data     0.277778                       # mshr miss rate for SoftPFReq accesses
system.cpu.dcache.SoftPFReq_mshr_miss_rate::total     0.277778                       # mshr miss rate for SoftPFReq accesses
system.cpu.dcache.SoftPFReq_avg_mshr_miss_latency::.cpu.data        60400                       # average SoftPFReq mshr miss latency
system.cpu.dcache.SoftPFReq_avg_mshr_miss_latency::total        60400                       # average SoftPFReq mshr miss latency
system.cpu.dcache.LoadLockedReq_hits::.cpu.data           60                       # number of LoadLockedReq hits
system.cpu.dcache.LoadLockedReq_hits::total           60                       # number of LoadLockedReq hits
system.cpu.dcache.LoadLockedReq_accesses::.cpu.data           60                       # number of LoadLockedReq accesses(hits+misses)
system.cpu.dcache.LoadLockedReq_accesses::total           60                       # number of LoadLockedReq accesses(hits+misses)
system.cpu.dcache.StoreCondReq_hits::.cpu.data           60                       # number of StoreCondReq hits
system.cpu.dcache.StoreCondReq_hits::total           60                       # number of StoreCondReq hits
system.cpu.dcache.StoreCondReq_accesses::.cpu.data           60                       # number of StoreCondReq accesses(hits+misses)
system.cpu.dcache.StoreCondReq_accesses::total           60                       # number of StoreCondReq accesses(hits+misses)
system.cpu.dcache.tags.pwrStateResidencyTicks::UNDEFINED    309449000                       # Cumulative time (in ticks) in various power states
system.cpu.dcache.tags.tagsinuse           156.132549                       # Cycle average of tags in use
system.cpu.dcache.tags.total_refs              179158                       # Total number of references to valid blocks.
system.cpu.dcache.tags.sampled_refs               180                       # Sample count of references to valid blocks.
system.cpu.dcache.tags.avg_refs            995.322222                       # Average number of references to valid blocks.
system.cpu.dcache.tags.warmup_cycle            145000                       # Cycle when the warmup percentage was hit.
system.cpu.dcache.tags.occ_blocks::.cpu.data   156.132549                       # Average occupied blocks per requestor
system.cpu.dcache.tags.occ_percent::.cpu.data     0.152473                       # Average percentage of cache occupancy
system.cpu.dcache.tags.occ_percent::total     0.152473                       # Average percentage of cache occupancy
system.cpu.dcache.tags.occ_task_id_blocks::1024          179                       # Occupied blocks per task id
system.cpu.dcache.tags.age_task_id_blocks_1024::0           17                       # Occupied blocks per task id
system.cpu.dcache.tags.age_task_id_blocks_1024::2          162                       # Occupied blocks per task id
system.cpu.dcache.tags.occ_task_id_percent::1024     0.174805                       # Percentage of cache occupancy per task id
system.cpu.dcache.tags.tag_accesses            358608                       # Number of tag accesses
system.cpu.dcache.tags.data_accesses           358608                       # Number of data accesses
system.cpu.itb.walker.pwrStateResidencyTicks::UNDEFINED    309449000                       # Cumulative time (in ticks) in various power states
system.cpu.itb.stage2_mmu.stage2_tlb.walker.pwrStateResidencyTicks::UNDEFINED    309449000                       # Cumulative time (in ticks) in various power states

---------- End Simulation Statistics   ----------
