
---------- Begin Simulation Statistics ----------
final_tick                                82443911000                       # Number of ticks from beginning of simulation (restored from checkpoints and never reset)
host_inst_rate                                 210998                       # Simulator instruction rate (inst/s)
host_mem_usage                                 689852                       # Number of bytes of host memory used
host_op_rate                                   211413                       # Simulator op (including micro ops) rate (op/s)
host_seconds                                   473.94                       # Real time elapsed on the host
host_tick_rate                              173954561                       # Simulator tick rate (ticks/s)
sim_freq                                 1000000000000                       # Frequency of simulated ticks
sim_insts                                   100000001                       # Number of instructions simulated
sim_ops                                     100196965                       # Number of ops (including micro ops) simulated
sim_seconds                                  0.082444                       # Number of seconds simulated
sim_ticks                                 82443911000                       # Number of ticks simulated
system.cpu.branchPred.BTBCorrect                    0                       # Number of correct BTB predictions (this stat may not work properly.
system.cpu.branchPred.BTBHitPct             99.608379                       # BTB Hit Percentage
system.cpu.branchPred.BTBHits                 2096342                       # Number of BTB hits
system.cpu.branchPred.BTBLookups              2104584                       # Number of BTB lookups
system.cpu.branchPred.RASInCorrect                  5                       # Number of incorrect RAS predictions.
system.cpu.branchPred.condIncorrect             81432                       # Number of conditional branches incorrect
system.cpu.branchPred.condPredicted           3728964                       # Number of conditional branches predicted
system.cpu.branchPred.indirectHits                338                       # Number of indirect target hits.
system.cpu.branchPred.indirectLookups            1064                       # Number of indirect predictor lookups.
system.cpu.branchPred.indirectMisses              726                       # Number of indirect misses.
system.cpu.branchPred.lookups                 4479589                       # Number of BP lookups
system.cpu.branchPred.usedRAS                   65486                       # Number of times the RAS was used to get a target.
system.cpu.branchPredindirectMispredicted          206                       # Number of mispredicted indirect branches.
system.cpu.committedInsts                   100000001                       # Number of instructions committed
system.cpu.committedOps                     100196965                       # Number of ops (including micro ops) committed
system.cpu.cpi                               1.648878                       # CPI: cycles per instruction
system.cpu.discardedOps                        190953                       # Number of ops (including micro ops) which were discarded before commit
system.cpu.dtb.accesses                             0                       # DTB accesses
system.cpu.dtb.align_faults                         0                       # Number of TLB faults due to alignment restrictions
system.cpu.dtb.domain_faults                        0                       # Number of TLB faults due to domain restrictions
system.cpu.dtb.flush_entries                        0                       # Number of entries that have been flushed from TLB
system.cpu.dtb.flush_tlb                            0                       # Number of times complete TLB was flushed
system.cpu.dtb.flush_tlb_asid                       0                       # Number of times TLB was flushed by ASID
system.cpu.dtb.flush_tlb_mva                        0                       # Number of times TLB was flushed by MVA
system.cpu.dtb.flush_tlb_mva_asid                   0                       # Number of times TLB was flushed by MVA & ASID
system.cpu.dtb.hits                                 0                       # DTB hits
system.cpu.dtb.inst_accesses                        0                       # ITB inst accesses
system.cpu.dtb.inst_hits                            0                       # ITB inst hits
system.cpu.dtb.inst_misses                          0                       # ITB inst misses
system.cpu.dtb.misses                               0                       # DTB misses
system.cpu.dtb.perms_faults                         0                       # Number of TLB faults due to permissions restrictions
system.cpu.dtb.prefetch_faults                      0                       # Number of TLB faults due to prefetch
system.cpu.dtb.read_accesses                        0                       # DTB read accesses
system.cpu.dtb.read_hits                            0                       # DTB read hits
system.cpu.dtb.read_misses                          0                       # DTB read misses
system.cpu.dtb.stage2_mmu.stage2_tlb.accesses            0                       # DTB accesses
system.cpu.dtb.stage2_mmu.stage2_tlb.align_faults            0                       # Number of TLB faults due to alignment restrictions
system.cpu.dtb.stage2_mmu.stage2_tlb.domain_faults            0                       # Number of TLB faults due to domain restrictions
system.cpu.dtb.stage2_mmu.stage2_tlb.flush_entries            0                       # Number of entries that have been flushed from TLB
system.cpu.dtb.stage2_mmu.stage2_tlb.flush_tlb            0                       # Number of times complete TLB was flushed
system.cpu.dtb.stage2_mmu.stage2_tlb.flush_tlb_asid            0                       # Number of times TLB was flushed by ASID
system.cpu.dtb.stage2_mmu.stage2_tlb.flush_tlb_mva            0                       # Number of times TLB was flushed by MVA
system.cpu.dtb.stage2_mmu.stage2_tlb.flush_tlb_mva_asid            0                       # Number of times TLB was flushed by MVA & ASID
system.cpu.dtb.stage2_mmu.stage2_tlb.hits            0                       # DTB hits
system.cpu.dtb.stage2_mmu.stage2_tlb.inst_accesses            0                       # ITB inst accesses
system.cpu.dtb.stage2_mmu.stage2_tlb.inst_hits            0                       # ITB inst hits
system.cpu.dtb.stage2_mmu.stage2_tlb.inst_misses            0                       # ITB inst misses
system.cpu.dtb.stage2_mmu.stage2_tlb.misses            0                       # DTB misses
system.cpu.dtb.stage2_mmu.stage2_tlb.perms_faults            0                       # Number of TLB faults due to permissions restrictions
system.cpu.dtb.stage2_mmu.stage2_tlb.prefetch_faults            0                       # Number of TLB faults due to prefetch
system.cpu.dtb.stage2_mmu.stage2_tlb.read_accesses            0                       # DTB read accesses
system.cpu.dtb.stage2_mmu.stage2_tlb.read_hits            0                       # DTB read hits
system.cpu.dtb.stage2_mmu.stage2_tlb.read_misses            0                       # DTB read misses
system.cpu.dtb.stage2_mmu.stage2_tlb.walker.walkRequestOrigin_Requested::Data            0                       # Table walker requests started/completed, data/inst
system.cpu.dtb.stage2_mmu.stage2_tlb.walker.walkRequestOrigin_Requested::Inst            0                       # Table walker requests started/completed, data/inst
system.cpu.dtb.stage2_mmu.stage2_tlb.walker.walkRequestOrigin_Requested::total            0                       # Table walker requests started/completed, data/inst
system.cpu.dtb.stage2_mmu.stage2_tlb.walker.walkRequestOrigin_Completed::Data            0                       # Table walker requests started/completed, data/inst
system.cpu.dtb.stage2_mmu.stage2_tlb.walker.walkRequestOrigin_Completed::Inst            0                       # Table walker requests started/completed, data/inst
system.cpu.dtb.stage2_mmu.stage2_tlb.walker.walkRequestOrigin_Completed::total            0                       # Table walker requests started/completed, data/inst
system.cpu.dtb.stage2_mmu.stage2_tlb.walker.walkRequestOrigin::total            0                       # Table walker requests started/completed, data/inst
system.cpu.dtb.stage2_mmu.stage2_tlb.walker.walks            0                       # Table walker walks requested
system.cpu.dtb.stage2_mmu.stage2_tlb.write_accesses            0                       # DTB write accesses
system.cpu.dtb.stage2_mmu.stage2_tlb.write_hits            0                       # DTB write hits
system.cpu.dtb.stage2_mmu.stage2_tlb.write_misses            0                       # DTB write misses
system.cpu.dtb.walker.walkRequestOrigin_Requested::Data            0                       # Table walker requests started/completed, data/inst
system.cpu.dtb.walker.walkRequestOrigin_Requested::Inst            0                       # Table walker requests started/completed, data/inst
system.cpu.dtb.walker.walkRequestOrigin_Requested::total            0                       # Table walker requests started/completed, data/inst
system.cpu.dtb.walker.walkRequestOrigin_Completed::Data            0                       # Table walker requests started/completed, data/inst
system.cpu.dtb.walker.walkRequestOrigin_Completed::Inst            0                       # Table walker requests started/completed, data/inst
system.cpu.dtb.walker.walkRequestOrigin_Completed::total            0                       # Table walker requests started/completed, data/inst
system.cpu.dtb.walker.walkRequestOrigin::total            0                       # Table walker requests started/completed, data/inst
system.cpu.dtb.walker.walks                         0                       # Table walker walks requested
system.cpu.dtb.write_accesses                       0                       # DTB write accesses
system.cpu.dtb.write_hits                           0                       # DTB write hits
system.cpu.dtb.write_misses                         0                       # DTB write misses
system.cpu.fetch2.amo_instructions                  0                       # Number of memory atomic instructions successfully decoded
system.cpu.fetch2.fp_instructions                   0                       # Number of floating point instructions successfully decoded
system.cpu.fetch2.int_instructions           42615261                       # Number of integer instructions successfully decoded
system.cpu.fetch2.load_instructions          43408130                       # Number of memory load instructions successfully decoded
system.cpu.fetch2.store_instructions         11002179                       # Number of memory store instructions successfully decoded
system.cpu.fetch2.vec_instructions                  0                       # Number of SIMD instructions successfully decoded
system.cpu.idleCycles                        32407709                       # Total number of cycles that the object has spent stopped
system.cpu.ipc                               0.606473                       # IPC: instructions per cycle
system.cpu.itb.accesses                             0                       # DTB accesses
system.cpu.itb.align_faults                         0                       # Number of TLB faults due to alignment restrictions
system.cpu.itb.domain_faults                        0                       # Number of TLB faults due to domain restrictions
system.cpu.itb.flush_entries                        0                       # Number of entries that have been flushed from TLB
system.cpu.itb.flush_tlb                            0                       # Number of times complete TLB was flushed
system.cpu.itb.flush_tlb_asid                       0                       # Number of times TLB was flushed by ASID
system.cpu.itb.flush_tlb_mva                        0                       # Number of times TLB was flushed by MVA
system.cpu.itb.flush_tlb_mva_asid                   0                       # Number of times TLB was flushed by MVA & ASID
system.cpu.itb.hits                                 0                       # DTB hits
system.cpu.itb.inst_accesses                        0                       # ITB inst accesses
system.cpu.itb.inst_hits                            0                       # ITB inst hits
system.cpu.itb.inst_misses                          0                       # ITB inst misses
system.cpu.itb.misses                               0                       # DTB misses
system.cpu.itb.perms_faults                         0                       # Number of TLB faults due to permissions restrictions
system.cpu.itb.prefetch_faults                      0                       # Number of TLB faults due to prefetch
system.cpu.itb.read_accesses                        0                       # DTB read accesses
system.cpu.itb.read_hits                            0                       # DTB read hits
system.cpu.itb.read_misses                          0                       # DTB read misses
system.cpu.itb.stage2_mmu.stage2_tlb.accesses            0                       # DTB accesses
system.cpu.itb.stage2_mmu.stage2_tlb.align_faults            0                       # Number of TLB faults due to alignment restrictions
system.cpu.itb.stage2_mmu.stage2_tlb.domain_faults            0                       # Number of TLB faults due to domain restrictions
system.cpu.itb.stage2_mmu.stage2_tlb.flush_entries            0                       # Number of entries that have been flushed from TLB
system.cpu.itb.stage2_mmu.stage2_tlb.flush_tlb            0                       # Number of times complete TLB was flushed
system.cpu.itb.stage2_mmu.stage2_tlb.flush_tlb_asid            0                       # Number of times TLB was flushed by ASID
system.cpu.itb.stage2_mmu.stage2_tlb.flush_tlb_mva            0                       # Number of times TLB was flushed by MVA
system.cpu.itb.stage2_mmu.stage2_tlb.flush_tlb_mva_asid            0                       # Number of times TLB was flushed by MVA & ASID
system.cpu.itb.stage2_mmu.stage2_tlb.hits            0                       # DTB hits
system.cpu.itb.stage2_mmu.stage2_tlb.inst_accesses            0                       # ITB inst accesses
system.cpu.itb.stage2_mmu.stage2_tlb.inst_hits            0                       # ITB inst hits
system.cpu.itb.stage2_mmu.stage2_tlb.inst_misses            0                       # ITB inst misses
system.cpu.itb.stage2_mmu.stage2_tlb.misses            0                       # DTB misses
system.cpu.itb.stage2_mmu.stage2_tlb.perms_faults            0                       # Number of TLB faults due to permissions restrictions
system.cpu.itb.stage2_mmu.stage2_tlb.prefetch_faults            0                       # Number of TLB faults due to prefetch
system.cpu.itb.stage2_mmu.stage2_tlb.read_accesses            0                       # DTB read accesses
system.cpu.itb.stage2_mmu.stage2_tlb.read_hits            0                       # DTB read hits
system.cpu.itb.stage2_mmu.stage2_tlb.read_misses            0                       # DTB read misses
system.cpu.itb.stage2_mmu.stage2_tlb.walker.walkRequestOrigin_Requested::Data            0                       # Table walker requests started/completed, data/inst
system.cpu.itb.stage2_mmu.stage2_tlb.walker.walkRequestOrigin_Requested::Inst            0                       # Table walker requests started/completed, data/inst
system.cpu.itb.stage2_mmu.stage2_tlb.walker.walkRequestOrigin_Requested::total            0                       # Table walker requests started/completed, data/inst
system.cpu.itb.stage2_mmu.stage2_tlb.walker.walkRequestOrigin_Completed::Data            0                       # Table walker requests started/completed, data/inst
system.cpu.itb.stage2_mmu.stage2_tlb.walker.walkRequestOrigin_Completed::Inst            0                       # Table walker requests started/completed, data/inst
system.cpu.itb.stage2_mmu.stage2_tlb.walker.walkRequestOrigin_Completed::total            0                       # Table walker requests started/completed, data/inst
system.cpu.itb.stage2_mmu.stage2_tlb.walker.walkRequestOrigin::total            0                       # Table walker requests started/completed, data/inst
system.cpu.itb.stage2_mmu.stage2_tlb.walker.walks            0                       # Table walker walks requested
system.cpu.itb.stage2_mmu.stage2_tlb.write_accesses            0                       # DTB write accesses
system.cpu.itb.stage2_mmu.stage2_tlb.write_hits            0                       # DTB write hits
system.cpu.itb.stage2_mmu.stage2_tlb.write_misses            0                       # DTB write misses
system.cpu.itb.walker.walkRequestOrigin_Requested::Data            0                       # Table walker requests started/completed, data/inst
system.cpu.itb.walker.walkRequestOrigin_Requested::Inst            0                       # Table walker requests started/completed, data/inst
system.cpu.itb.walker.walkRequestOrigin_Requested::total            0                       # Table walker requests started/completed, data/inst
system.cpu.itb.walker.walkRequestOrigin_Completed::Data            0                       # Table walker requests started/completed, data/inst
system.cpu.itb.walker.walkRequestOrigin_Completed::Inst            0                       # Table walker requests started/completed, data/inst
system.cpu.itb.walker.walkRequestOrigin_Completed::total            0                       # Table walker requests started/completed, data/inst
system.cpu.itb.walker.walkRequestOrigin::total            0                       # Table walker requests started/completed, data/inst
system.cpu.itb.walker.walks                         0                       # Table walker walks requested
system.cpu.itb.write_accesses                       0                       # DTB write accesses
system.cpu.itb.write_hits                           0                       # DTB write hits
system.cpu.itb.write_misses                         0                       # DTB write misses
system.cpu.numCycles                        164887822                       # number of cpu cycles simulated
system.cpu.numFetchSuspends                         0                       # Number of times Execute suspended instruction fetching
system.cpu.numWorkItemsCompleted                    0                       # number of work items this cpu completed
system.cpu.numWorkItemsStarted                      0                       # number of work items this cpu started
system.cpu.op_class_0::No_OpClass                   0      0.00%      0.00% # Class of committed instruction
system.cpu.op_class_0::IntAlu                46531843     46.44%     46.44% # Class of committed instruction
system.cpu.op_class_0::IntMult                  20720      0.02%     46.46% # Class of committed instruction
system.cpu.op_class_0::IntDiv                       0      0.00%     46.46% # Class of committed instruction
system.cpu.op_class_0::FloatAdd                     0      0.00%     46.46% # Class of committed instruction
system.cpu.op_class_0::FloatCmp                     0      0.00%     46.46% # Class of committed instruction
system.cpu.op_class_0::FloatCvt                     0      0.00%     46.46% # Class of committed instruction
system.cpu.op_class_0::FloatMult                    0      0.00%     46.46% # Class of committed instruction
system.cpu.op_class_0::FloatMultAcc                 0      0.00%     46.46% # Class of committed instruction
system.cpu.op_class_0::FloatDiv                     0      0.00%     46.46% # Class of committed instruction
system.cpu.op_class_0::FloatMisc                    0      0.00%     46.46% # Class of committed instruction
system.cpu.op_class_0::FloatSqrt                    0      0.00%     46.46% # Class of committed instruction
system.cpu.op_class_0::SimdAdd                      0      0.00%     46.46% # Class of committed instruction
system.cpu.op_class_0::SimdAddAcc                   0      0.00%     46.46% # Class of committed instruction
system.cpu.op_class_0::SimdAlu                      0      0.00%     46.46% # Class of committed instruction
system.cpu.op_class_0::SimdCmp                      0      0.00%     46.46% # Class of committed instruction
system.cpu.op_class_0::SimdCvt                      0      0.00%     46.46% # Class of committed instruction
system.cpu.op_class_0::SimdMisc                     0      0.00%     46.46% # Class of committed instruction
system.cpu.op_class_0::SimdMult                     0      0.00%     46.46% # Class of committed instruction
system.cpu.op_class_0::SimdMultAcc                  0      0.00%     46.46% # Class of committed instruction
system.cpu.op_class_0::SimdShift                    0      0.00%     46.46% # Class of committed instruction
system.cpu.op_class_0::SimdShiftAcc                 0      0.00%     46.46% # Class of committed instruction
system.cpu.op_class_0::SimdDiv                      0      0.00%     46.46% # Class of committed instruction
system.cpu.op_class_0::SimdSqrt                     0      0.00%     46.46% # Class of committed instruction
system.cpu.op_class_0::SimdFloatAdd                 0      0.00%     46.46% # Class of committed instruction
system.cpu.op_class_0::SimdFloatAlu                 0      0.00%     46.46% # Class of committed instruction
system.cpu.op_class_0::SimdFloatCmp                 0      0.00%     46.46% # Class of committed instruction
system.cpu.op_class_0::SimdFloatCvt                 0      0.00%     46.46% # Class of committed instruction
system.cpu.op_class_0::SimdFloatDiv                 0      0.00%     46.46% # Class of committed instruction
system.cpu.op_class_0::SimdFloatMisc               18      0.00%     46.46% # Class of committed instruction
system.cpu.op_class_0::SimdFloatMult                0      0.00%     46.46% # Class of committed instruction
system.cpu.op_class_0::SimdFloatMultAcc             0      0.00%     46.46% # Class of committed instruction
system.cpu.op_class_0::SimdFloatSqrt                0      0.00%     46.46% # Class of committed instruction
system.cpu.op_class_0::SimdReduceAdd                0      0.00%     46.46% # Class of committed instruction
system.cpu.op_class_0::SimdReduceAlu                0      0.00%     46.46% # Class of committed instruction
system.cpu.op_class_0::SimdReduceCmp                0      0.00%     46.46% # Class of committed instruction
system.cpu.op_class_0::SimdFloatReduceAdd            0      0.00%     46.46% # Class of committed instruction
system.cpu.op_class_0::SimdFloatReduceCmp            0      0.00%     46.46% # Class of committed instruction
system.cpu.op_class_0::SimdAes                      0      0.00%     46.46% # Class of committed instruction
system.cpu.op_class_0::SimdAesMix                   0      0.00%     46.46% # Class of committed instruction
system.cpu.op_class_0::SimdSha1Hash                 0      0.00%     46.46% # Class of committed instruction
system.cpu.op_class_0::SimdSha1Hash2                0      0.00%     46.46% # Class of committed instruction
system.cpu.op_class_0::SimdSha256Hash               0      0.00%     46.46% # Class of committed instruction
system.cpu.op_class_0::SimdSha256Hash2              0      0.00%     46.46% # Class of committed instruction
system.cpu.op_class_0::SimdShaSigma2                0      0.00%     46.46% # Class of committed instruction
system.cpu.op_class_0::SimdShaSigma3                0      0.00%     46.46% # Class of committed instruction
system.cpu.op_class_0::SimdPredAlu                  0      0.00%     46.46% # Class of committed instruction
system.cpu.op_class_0::MemRead               42693538     42.61%     89.07% # Class of committed instruction
system.cpu.op_class_0::MemWrite              10950846     10.93%    100.00% # Class of committed instruction
system.cpu.op_class_0::FloatMemRead                 0      0.00%    100.00% # Class of committed instruction
system.cpu.op_class_0::FloatMemWrite                0      0.00%    100.00% # Class of committed instruction
system.cpu.op_class_0::IprAccess                    0      0.00%    100.00% # Class of committed instruction
system.cpu.op_class_0::InstPrefetch                 0      0.00%    100.00% # Class of committed instruction
system.cpu.op_class_0::total                100196965                       # Class of committed instruction
system.cpu.tickCycles                       132480113                       # Number of cycles that the object actually ticked
system.cpu.workload.numSyscalls                   127                       # Number of system calls
system.membus.snoop_filter.hit_multi_requests            0                       # Number of requests hitting in the snoop filter with multiple (>1) holders of the requested data.
system.membus.snoop_filter.hit_multi_snoops            0                       # Number of snoops hitting in the snoop filter with multiple (>1) holders of the requested data.
system.membus.snoop_filter.hit_single_requests        57898                       # Number of requests hitting in the snoop filter with a single holder of the requested data.
system.membus.snoop_filter.hit_single_snoops            0                       # Number of snoops hitting in the snoop filter with a single holder of the requested data.
system.membus.snoop_filter.tot_requests        132256                       # Total number of requests made to the snoop filter.
system.membus.snoop_filter.tot_snoops               0                       # Total number of snoops made to the snoop filter.
system.tol2bus.snoop_filter.hit_multi_requests          295                       # Number of requests hitting in the snoop filter with multiple (>1) holders of the requested data.
system.tol2bus.snoop_filter.hit_multi_snoops            1                       # Number of snoops hitting in the snoop filter with multiple (>1) holders of the requested data.
system.tol2bus.snoop_filter.hit_single_requests       769508                       # Number of requests hitting in the snoop filter with a single holder of the requested data.
system.tol2bus.snoop_filter.hit_single_snoops          188                       # Number of snoops hitting in the snoop filter with a single holder of the requested data.
system.tol2bus.snoop_filter.tot_requests      1539394                       # Total number of requests made to the snoop filter.
system.tol2bus.snoop_filter.tot_snoops            189                       # Total number of snoops made to the snoop filter.
system.membus.pwrStateResidencyTicks::UNDEFINED  82443911000                       # Cumulative time (in ticks) in various power states
system.membus.trans_dist::ReadResp              19375                       # Transaction distribution
system.membus.trans_dist::WritebackDirty        40236                       # Transaction distribution
system.membus.trans_dist::CleanEvict            17653                       # Transaction distribution
system.membus.trans_dist::ReadExReq             54992                       # Transaction distribution
system.membus.trans_dist::ReadExResp            54992                       # Transaction distribution
system.membus.trans_dist::ReadSharedReq         19375                       # Transaction distribution
system.membus.pkt_count_system.l2.mem_side::system.mem_ctrls.port       206623                       # Packet count per connected master and slave (bytes)
system.membus.pkt_count::total                 206623                       # Packet count per connected master and slave (bytes)
system.membus.pkt_size_system.l2.mem_side::system.mem_ctrls.port     29338368                       # Cumulative packet size per connected master and slave (bytes)
system.membus.pkt_size::total                29338368                       # Cumulative packet size per connected master and slave (bytes)
system.membus.snoops                                0                       # Total snoops (count)
system.membus.snoopTraffic                          0                       # Total snoop traffic (bytes)
system.membus.snoop_fanout::samples             74367                       # Request fanout histogram
system.membus.snoop_fanout::mean                    0                       # Request fanout histogram
system.membus.snoop_fanout::stdev                   0                       # Request fanout histogram
system.membus.snoop_fanout::underflows              0      0.00%      0.00% # Request fanout histogram
system.membus.snoop_fanout::0                   74367    100.00%    100.00% # Request fanout histogram
system.membus.snoop_fanout::1                       0      0.00%    100.00% # Request fanout histogram
system.membus.snoop_fanout::overflows               0      0.00%    100.00% # Request fanout histogram
system.membus.snoop_fanout::min_value               0                       # Request fanout histogram
system.membus.snoop_fanout::max_value               0                       # Request fanout histogram
system.membus.snoop_fanout::total               74367                       # Request fanout histogram
system.membus.respLayer1.occupancy         1292903000                       # Layer occupancy (ticks)
system.membus.respLayer1.utilization              1.6                       # Layer utilization (%)
system.membus.reqLayer0.occupancy           797927000                       # Layer occupancy (ticks)
system.membus.reqLayer0.utilization               1.0                       # Layer utilization (%)
system.tol2bus.pwrStateResidencyTicks::UNDEFINED  82443911000                       # Cumulative time (in ticks) in various power states
system.tol2bus.trans_dist::ReadResp            443320                       # Transaction distribution
system.tol2bus.trans_dist::WritebackDirty       787551                       # Transaction distribution
system.tol2bus.trans_dist::WritebackClean          321                       # Transaction distribution
system.tol2bus.trans_dist::CleanEvict           39714                       # Transaction distribution
system.tol2bus.trans_dist::ReadExReq           326566                       # Transaction distribution
system.tol2bus.trans_dist::ReadExResp          326566                       # Transaction distribution
system.tol2bus.trans_dist::ReadCleanReq           443                       # Transaction distribution
system.tol2bus.trans_dist::ReadSharedReq       442877                       # Transaction distribution
system.tol2bus.pkt_count_system.cpu.icache.mem_side::system.l2.cpu_side         1207                       # Packet count per connected master and slave (bytes)
system.tol2bus.pkt_count_system.cpu.dcache.mem_side::system.l2.cpu_side      2308073                       # Packet count per connected master and slave (bytes)
system.tol2bus.pkt_count::total               2309280                       # Packet count per connected master and slave (bytes)
system.tol2bus.pkt_size_system.cpu.icache.mem_side::system.l2.cpu_side       195584                       # Cumulative packet size per connected master and slave (bytes)
system.tol2bus.pkt_size_system.cpu.dcache.mem_side::system.l2.cpu_side    388290048                       # Cumulative packet size per connected master and slave (bytes)
system.tol2bus.pkt_size::total              388485632                       # Cumulative packet size per connected master and slave (bytes)
system.tol2bus.snoops                           58078                       # Total snoops (count)
system.tol2bus.snoopTraffic                  10300416                       # Total snoop traffic (bytes)
system.tol2bus.snoop_fanout::samples           827964                       # Request fanout histogram
system.tol2bus.snoop_fanout::mean            0.000586                       # Request fanout histogram
system.tol2bus.snoop_fanout::stdev           0.024246                       # Request fanout histogram
system.tol2bus.snoop_fanout::underflows             0      0.00%      0.00% # Request fanout histogram
system.tol2bus.snoop_fanout::0                 827480     99.94%     99.94% # Request fanout histogram
system.tol2bus.snoop_fanout::1                    483      0.06%    100.00% # Request fanout histogram
system.tol2bus.snoop_fanout::2                      1      0.00%    100.00% # Request fanout histogram
system.tol2bus.snoop_fanout::overflows              0      0.00%    100.00% # Request fanout histogram
system.tol2bus.snoop_fanout::min_value              0                       # Request fanout histogram
system.tol2bus.snoop_fanout::max_value              2                       # Request fanout histogram
system.tol2bus.snoop_fanout::total             827964                       # Request fanout histogram
system.tol2bus.reqLayer0.occupancy         3760241000                       # Layer occupancy (ticks)
system.tol2bus.reqLayer0.utilization              4.6                       # Layer utilization (%)
system.tol2bus.respLayer1.occupancy        3462496494                       # Layer occupancy (ticks)
system.tol2bus.respLayer1.utilization             4.2                       # Layer utilization (%)
system.tol2bus.respLayer0.occupancy           1993500                       # Layer occupancy (ticks)
system.tol2bus.respLayer0.utilization             0.0                       # Layer utilization (%)
system.voltage_domain.voltage                       1                       # Voltage in Volts
system.clk_domain.clock                          1000                       # Clock period in ticks
system.l2.pwrStateResidencyTicks::UNDEFINED  82443911000                       # Cumulative time (in ticks) in various power states
system.l2.demand_hits::.cpu.inst                  150                       # number of demand (read+write) hits
system.l2.demand_hits::.cpu.data               695363                       # number of demand (read+write) hits
system.l2.demand_hits::total                   695513                       # number of demand (read+write) hits
system.l2.overall_hits::.cpu.inst                 150                       # number of overall hits
system.l2.overall_hits::.cpu.data              695363                       # number of overall hits
system.l2.overall_hits::total                  695513                       # number of overall hits
system.l2.demand_misses::.cpu.inst                293                       # number of demand (read+write) misses
system.l2.demand_misses::.cpu.data              74080                       # number of demand (read+write) misses
system.l2.demand_misses::total                  74373                       # number of demand (read+write) misses
system.l2.overall_misses::.cpu.inst               293                       # number of overall misses
system.l2.overall_misses::.cpu.data             74080                       # number of overall misses
system.l2.overall_misses::total                 74373                       # number of overall misses
system.l2.demand_miss_latency::.cpu.inst     28371000                       # number of demand (read+write) miss cycles
system.l2.demand_miss_latency::.cpu.data   8801834000                       # number of demand (read+write) miss cycles
system.l2.demand_miss_latency::total       8830205000                       # number of demand (read+write) miss cycles
system.l2.overall_miss_latency::.cpu.inst     28371000                       # number of overall miss cycles
system.l2.overall_miss_latency::.cpu.data   8801834000                       # number of overall miss cycles
system.l2.overall_miss_latency::total      8830205000                       # number of overall miss cycles
system.l2.demand_accesses::.cpu.inst              443                       # number of demand (read+write) accesses
system.l2.demand_accesses::.cpu.data           769443                       # number of demand (read+write) accesses
system.l2.demand_accesses::total               769886                       # number of demand (read+write) accesses
system.l2.overall_accesses::.cpu.inst             443                       # number of overall (read+write) accesses
system.l2.overall_accesses::.cpu.data          769443                       # number of overall (read+write) accesses
system.l2.overall_accesses::total              769886                       # number of overall (read+write) accesses
system.l2.demand_miss_rate::.cpu.inst        0.661400                       # miss rate for demand accesses
system.l2.demand_miss_rate::.cpu.data        0.096277                       # miss rate for demand accesses
system.l2.demand_miss_rate::total            0.096603                       # miss rate for demand accesses
system.l2.overall_miss_rate::.cpu.inst       0.661400                       # miss rate for overall accesses
system.l2.overall_miss_rate::.cpu.data       0.096277                       # miss rate for overall accesses
system.l2.overall_miss_rate::total           0.096603                       # miss rate for overall accesses
system.l2.demand_avg_miss_latency::.cpu.inst 96829.351536                       # average overall miss latency
system.l2.demand_avg_miss_latency::.cpu.data 118815.253780                       # average overall miss latency
system.l2.demand_avg_miss_latency::total 118728.638081                       # average overall miss latency
system.l2.overall_avg_miss_latency::.cpu.inst 96829.351536                       # average overall miss latency
system.l2.overall_avg_miss_latency::.cpu.data 118815.253780                       # average overall miss latency
system.l2.overall_avg_miss_latency::total 118728.638081                       # average overall miss latency
system.l2.blocked_cycles::no_mshrs                  0                       # number of cycles access was blocked
system.l2.blocked_cycles::no_targets                0                       # number of cycles access was blocked
system.l2.blocked::no_mshrs                         0                       # number of cycles access was blocked
system.l2.blocked::no_targets                       0                       # number of cycles access was blocked
system.l2.avg_blocked_cycles::no_mshrs            nan                       # average number of cycles each access was blocked
system.l2.avg_blocked_cycles::no_targets          nan                       # average number of cycles each access was blocked
system.l2.writebacks::.writebacks               40236                       # number of writebacks
system.l2.writebacks::total                     40236                       # number of writebacks
system.l2.demand_mshr_hits::.cpu.data               6                       # number of demand (read+write) MSHR hits
system.l2.demand_mshr_hits::total                   6                       # number of demand (read+write) MSHR hits
system.l2.overall_mshr_hits::.cpu.data              6                       # number of overall MSHR hits
system.l2.overall_mshr_hits::total                  6                       # number of overall MSHR hits
system.l2.demand_mshr_misses::.cpu.inst           293                       # number of demand (read+write) MSHR misses
system.l2.demand_mshr_misses::.cpu.data         74074                       # number of demand (read+write) MSHR misses
system.l2.demand_mshr_misses::total             74367                       # number of demand (read+write) MSHR misses
system.l2.overall_mshr_misses::.cpu.inst          293                       # number of overall MSHR misses
system.l2.overall_mshr_misses::.cpu.data        74074                       # number of overall MSHR misses
system.l2.overall_mshr_misses::total            74367                       # number of overall MSHR misses
system.l2.demand_mshr_miss_latency::.cpu.inst     25441000                       # number of demand (read+write) MSHR miss cycles
system.l2.demand_mshr_miss_latency::.cpu.data   8060671500                       # number of demand (read+write) MSHR miss cycles
system.l2.demand_mshr_miss_latency::total   8086112500                       # number of demand (read+write) MSHR miss cycles
system.l2.overall_mshr_miss_latency::.cpu.inst     25441000                       # number of overall MSHR miss cycles
system.l2.overall_mshr_miss_latency::.cpu.data   8060671500                       # number of overall MSHR miss cycles
system.l2.overall_mshr_miss_latency::total   8086112500                       # number of overall MSHR miss cycles
system.l2.demand_mshr_miss_rate::.cpu.inst     0.661400                       # mshr miss rate for demand accesses
system.l2.demand_mshr_miss_rate::.cpu.data     0.096270                       # mshr miss rate for demand accesses
system.l2.demand_mshr_miss_rate::total       0.096595                       # mshr miss rate for demand accesses
system.l2.overall_mshr_miss_rate::.cpu.inst     0.661400                       # mshr miss rate for overall accesses
system.l2.overall_mshr_miss_rate::.cpu.data     0.096270                       # mshr miss rate for overall accesses
system.l2.overall_mshr_miss_rate::total      0.096595                       # mshr miss rate for overall accesses
system.l2.demand_avg_mshr_miss_latency::.cpu.inst 86829.351536                       # average overall mshr miss latency
system.l2.demand_avg_mshr_miss_latency::.cpu.data 108819.174069                       # average overall mshr miss latency
system.l2.demand_avg_mshr_miss_latency::total 108732.535937                       # average overall mshr miss latency
system.l2.overall_avg_mshr_miss_latency::.cpu.inst 86829.351536                       # average overall mshr miss latency
system.l2.overall_avg_mshr_miss_latency::.cpu.data 108819.174069                       # average overall mshr miss latency
system.l2.overall_avg_mshr_miss_latency::total 108732.535937                       # average overall mshr miss latency
system.l2.replacements                          58078                       # number of replacements
system.l2.WritebackDirty_hits::.writebacks       747315                       # number of WritebackDirty hits
system.l2.WritebackDirty_hits::total           747315                       # number of WritebackDirty hits
system.l2.WritebackDirty_accesses::.writebacks       747315                       # number of WritebackDirty accesses(hits+misses)
system.l2.WritebackDirty_accesses::total       747315                       # number of WritebackDirty accesses(hits+misses)
system.l2.WritebackClean_hits::.writebacks          300                       # number of WritebackClean hits
system.l2.WritebackClean_hits::total              300                       # number of WritebackClean hits
system.l2.WritebackClean_accesses::.writebacks          300                       # number of WritebackClean accesses(hits+misses)
system.l2.WritebackClean_accesses::total          300                       # number of WritebackClean accesses(hits+misses)
system.l2.ReadExReq_hits::.cpu.data            271574                       # number of ReadExReq hits
system.l2.ReadExReq_hits::total                271574                       # number of ReadExReq hits
system.l2.ReadExReq_misses::.cpu.data           54992                       # number of ReadExReq misses
system.l2.ReadExReq_misses::total               54992                       # number of ReadExReq misses
system.l2.ReadExReq_miss_latency::.cpu.data   6890185000                       # number of ReadExReq miss cycles
system.l2.ReadExReq_miss_latency::total    6890185000                       # number of ReadExReq miss cycles
system.l2.ReadExReq_accesses::.cpu.data        326566                       # number of ReadExReq accesses(hits+misses)
system.l2.ReadExReq_accesses::total            326566                       # number of ReadExReq accesses(hits+misses)
system.l2.ReadExReq_miss_rate::.cpu.data     0.168395                       # miss rate for ReadExReq accesses
system.l2.ReadExReq_miss_rate::total         0.168395                       # miss rate for ReadExReq accesses
system.l2.ReadExReq_avg_miss_latency::.cpu.data 125294.315537                       # average ReadExReq miss latency
system.l2.ReadExReq_avg_miss_latency::total 125294.315537                       # average ReadExReq miss latency
system.l2.ReadExReq_mshr_misses::.cpu.data        54992                       # number of ReadExReq MSHR misses
system.l2.ReadExReq_mshr_misses::total          54992                       # number of ReadExReq MSHR misses
system.l2.ReadExReq_mshr_miss_latency::.cpu.data   6340265000                       # number of ReadExReq MSHR miss cycles
system.l2.ReadExReq_mshr_miss_latency::total   6340265000                       # number of ReadExReq MSHR miss cycles
system.l2.ReadExReq_mshr_miss_rate::.cpu.data     0.168395                       # mshr miss rate for ReadExReq accesses
system.l2.ReadExReq_mshr_miss_rate::total     0.168395                       # mshr miss rate for ReadExReq accesses
system.l2.ReadExReq_avg_mshr_miss_latency::.cpu.data 115294.315537                       # average ReadExReq mshr miss latency
system.l2.ReadExReq_avg_mshr_miss_latency::total 115294.315537                       # average ReadExReq mshr miss latency
system.l2.ReadCleanReq_hits::.cpu.inst            150                       # number of ReadCleanReq hits
system.l2.ReadCleanReq_hits::total                150                       # number of ReadCleanReq hits
system.l2.ReadCleanReq_misses::.cpu.inst          293                       # number of ReadCleanReq misses
system.l2.ReadCleanReq_misses::total              293                       # number of ReadCleanReq misses
system.l2.ReadCleanReq_miss_latency::.cpu.inst     28371000                       # number of ReadCleanReq miss cycles
system.l2.ReadCleanReq_miss_latency::total     28371000                       # number of ReadCleanReq miss cycles
system.l2.ReadCleanReq_accesses::.cpu.inst          443                       # number of ReadCleanReq accesses(hits+misses)
system.l2.ReadCleanReq_accesses::total            443                       # number of ReadCleanReq accesses(hits+misses)
system.l2.ReadCleanReq_miss_rate::.cpu.inst     0.661400                       # miss rate for ReadCleanReq accesses
system.l2.ReadCleanReq_miss_rate::total      0.661400                       # miss rate for ReadCleanReq accesses
system.l2.ReadCleanReq_avg_miss_latency::.cpu.inst 96829.351536                       # average ReadCleanReq miss latency
system.l2.ReadCleanReq_avg_miss_latency::total 96829.351536                       # average ReadCleanReq miss latency
system.l2.ReadCleanReq_mshr_misses::.cpu.inst          293                       # number of ReadCleanReq MSHR misses
system.l2.ReadCleanReq_mshr_misses::total          293                       # number of ReadCleanReq MSHR misses
system.l2.ReadCleanReq_mshr_miss_latency::.cpu.inst     25441000                       # number of ReadCleanReq MSHR miss cycles
system.l2.ReadCleanReq_mshr_miss_latency::total     25441000                       # number of ReadCleanReq MSHR miss cycles
system.l2.ReadCleanReq_mshr_miss_rate::.cpu.inst     0.661400                       # mshr miss rate for ReadCleanReq accesses
system.l2.ReadCleanReq_mshr_miss_rate::total     0.661400                       # mshr miss rate for ReadCleanReq accesses
system.l2.ReadCleanReq_avg_mshr_miss_latency::.cpu.inst 86829.351536                       # average ReadCleanReq mshr miss latency
system.l2.ReadCleanReq_avg_mshr_miss_latency::total 86829.351536                       # average ReadCleanReq mshr miss latency
system.l2.ReadSharedReq_hits::.cpu.data        423789                       # number of ReadSharedReq hits
system.l2.ReadSharedReq_hits::total            423789                       # number of ReadSharedReq hits
system.l2.ReadSharedReq_misses::.cpu.data        19088                       # number of ReadSharedReq misses
system.l2.ReadSharedReq_misses::total           19088                       # number of ReadSharedReq misses
system.l2.ReadSharedReq_miss_latency::.cpu.data   1911649000                       # number of ReadSharedReq miss cycles
system.l2.ReadSharedReq_miss_latency::total   1911649000                       # number of ReadSharedReq miss cycles
system.l2.ReadSharedReq_accesses::.cpu.data       442877                       # number of ReadSharedReq accesses(hits+misses)
system.l2.ReadSharedReq_accesses::total        442877                       # number of ReadSharedReq accesses(hits+misses)
system.l2.ReadSharedReq_miss_rate::.cpu.data     0.043100                       # miss rate for ReadSharedReq accesses
system.l2.ReadSharedReq_miss_rate::total     0.043100                       # miss rate for ReadSharedReq accesses
system.l2.ReadSharedReq_avg_miss_latency::.cpu.data 100149.256077                       # average ReadSharedReq miss latency
system.l2.ReadSharedReq_avg_miss_latency::total 100149.256077                       # average ReadSharedReq miss latency
system.l2.ReadSharedReq_mshr_hits::.cpu.data            6                       # number of ReadSharedReq MSHR hits
system.l2.ReadSharedReq_mshr_hits::total            6                       # number of ReadSharedReq MSHR hits
system.l2.ReadSharedReq_mshr_misses::.cpu.data        19082                       # number of ReadSharedReq MSHR misses
system.l2.ReadSharedReq_mshr_misses::total        19082                       # number of ReadSharedReq MSHR misses
system.l2.ReadSharedReq_mshr_miss_latency::.cpu.data   1720406500                       # number of ReadSharedReq MSHR miss cycles
system.l2.ReadSharedReq_mshr_miss_latency::total   1720406500                       # number of ReadSharedReq MSHR miss cycles
system.l2.ReadSharedReq_mshr_miss_rate::.cpu.data     0.043086                       # mshr miss rate for ReadSharedReq accesses
system.l2.ReadSharedReq_mshr_miss_rate::total     0.043086                       # mshr miss rate for ReadSharedReq accesses
system.l2.ReadSharedReq_avg_mshr_miss_latency::.cpu.data 90158.604968                       # average ReadSharedReq mshr miss latency
system.l2.ReadSharedReq_avg_mshr_miss_latency::total 90158.604968                       # average ReadSharedReq mshr miss latency
system.l2.tags.pwrStateResidencyTicks::UNDEFINED  82443911000                       # Cumulative time (in ticks) in various power states
system.l2.tags.tagsinuse                 15858.374625                       # Cycle average of tags in use
system.l2.tags.total_refs                     1539093                       # Total number of references to valid blocks.
system.l2.tags.sampled_refs                     74462                       # Sample count of references to valid blocks.
system.l2.tags.avg_refs                     20.669509                       # Average number of references to valid blocks.
system.l2.tags.warmup_cycle                     92000                       # Cycle when the warmup percentage was hit.
system.l2.tags.occ_blocks::.writebacks      41.908007                       # Average occupied blocks per requestor
system.l2.tags.occ_blocks::.cpu.inst        51.934888                       # Average occupied blocks per requestor
system.l2.tags.occ_blocks::.cpu.data     15764.531730                       # Average occupied blocks per requestor
system.l2.tags.occ_percent::.writebacks      0.002558                       # Average percentage of cache occupancy
system.l2.tags.occ_percent::.cpu.inst        0.003170                       # Average percentage of cache occupancy
system.l2.tags.occ_percent::.cpu.data        0.962191                       # Average percentage of cache occupancy
system.l2.tags.occ_percent::total            0.967918                       # Average percentage of cache occupancy
system.l2.tags.occ_task_id_blocks::1024         16384                       # Occupied blocks per task id
system.l2.tags.age_task_id_blocks_1024::2            3                       # Occupied blocks per task id
system.l2.tags.age_task_id_blocks_1024::3          946                       # Occupied blocks per task id
system.l2.tags.age_task_id_blocks_1024::4        15435                       # Occupied blocks per task id
system.l2.tags.occ_task_id_percent::1024            1                       # Percentage of cache occupancy per task id
system.l2.tags.tag_accesses                  12387254                       # Number of tag accesses
system.l2.tags.data_accesses                 12387254                       # Number of data accesses
system.cpu_voltage_domain.voltage                   1                       # Voltage in Volts
system.mem_ctrls.pwrStateResidencyTicks::UNDEFINED  82443911000                       # Cumulative time (in ticks) in various power states
system.mem_ctrls.bytes_read::.cpu.inst          75008                       # Number of bytes read from this memory
system.mem_ctrls.bytes_read::.cpu.data       18962944                       # Number of bytes read from this memory
system.mem_ctrls.bytes_read::total           19037952                       # Number of bytes read from this memory
system.mem_ctrls.bytes_inst_read::.cpu.inst        75008                       # Number of instructions bytes read from this memory
system.mem_ctrls.bytes_inst_read::total         75008                       # Number of instructions bytes read from this memory
system.mem_ctrls.bytes_written::.writebacks     10300416                       # Number of bytes written to this memory
system.mem_ctrls.bytes_written::total        10300416                       # Number of bytes written to this memory
system.mem_ctrls.num_reads::.cpu.inst             293                       # Number of read requests responded to by this memory
system.mem_ctrls.num_reads::.cpu.data           74074                       # Number of read requests responded to by this memory
system.mem_ctrls.num_reads::total               74367                       # Number of read requests responded to by this memory
system.mem_ctrls.num_writes::.writebacks        40236                       # Number of write requests responded to by this memory
system.mem_ctrls.num_writes::total              40236                       # Number of write requests responded to by this memory
system.mem_ctrls.bw_read::.cpu.inst            909806                       # Total read bandwidth from this memory (bytes/s)
system.mem_ctrls.bw_read::.cpu.data         230010243                       # Total read bandwidth from this memory (bytes/s)
system.mem_ctrls.bw_read::total             230920049                       # Total read bandwidth from this memory (bytes/s)
system.mem_ctrls.bw_inst_read::.cpu.inst       909806                       # Instruction read bandwidth from this memory (bytes/s)
system.mem_ctrls.bw_inst_read::total           909806                       # Instruction read bandwidth from this memory (bytes/s)
system.mem_ctrls.bw_write::.writebacks      124938469                       # Write bandwidth from this memory (bytes/s)
system.mem_ctrls.bw_write::total            124938469                       # Write bandwidth from this memory (bytes/s)
system.mem_ctrls.bw_total::.writebacks      124938469                       # Total bandwidth to/from this memory (bytes/s)
system.mem_ctrls.bw_total::.cpu.inst           909806                       # Total bandwidth to/from this memory (bytes/s)
system.mem_ctrls.bw_total::.cpu.data        230010243                       # Total bandwidth to/from this memory (bytes/s)
system.mem_ctrls.bw_total::total            355858518                       # Total bandwidth to/from this memory (bytes/s)
system.mem_ctrls.avgPriority_.writebacks::samples    160944.00                       # Average QoS priority value for accepted requests
system.mem_ctrls.avgPriority_.cpu.inst::samples      1172.00                       # Average QoS priority value for accepted requests
system.mem_ctrls.avgPriority_.cpu.data::samples    296269.00                       # Average QoS priority value for accepted requests
system.mem_ctrls.priorityMinLatency      0.000000018750                       # per QoS priority minimum request to response latency (s)
system.mem_ctrls.priorityMaxLatency      0.010358186750                       # per QoS priority maximum request to response latency (s)
system.mem_ctrls.numReadWriteTurnArounds         9852                       # Number of turnarounds from READ to WRITE
system.mem_ctrls.numWriteReadTurnArounds         9852                       # Number of turnarounds from WRITE to READ
system.mem_ctrls.numStayReadState              412331                       # Number of times bus staying in READ state
system.mem_ctrls.numStayWriteState             151306                       # Number of times bus staying in WRITE state
system.mem_ctrls.readReqs                       74367                       # Number of read requests accepted
system.mem_ctrls.writeReqs                      40236                       # Number of write requests accepted
system.mem_ctrls.readBursts                    297468                       # Number of DRAM read bursts, including those serviced by the write queue
system.mem_ctrls.writeBursts                   160944                       # Number of DRAM write bursts, including those merged in the write queue
system.mem_ctrls.servicedByWrQ                     27                       # Number of DRAM read bursts serviced by the write queue
system.mem_ctrls.mergedWrBursts                     0                       # Number of DRAM write bursts merged with an existing one
system.mem_ctrls.neitherReadNorWriteReqs            0                       # Number of requests that are neither read nor write
system.mem_ctrls.perBankRdBursts::0             18912                       # Per bank write bursts
system.mem_ctrls.perBankRdBursts::1             18820                       # Per bank write bursts
system.mem_ctrls.perBankRdBursts::2             18772                       # Per bank write bursts
system.mem_ctrls.perBankRdBursts::3             18480                       # Per bank write bursts
system.mem_ctrls.perBankRdBursts::4             18584                       # Per bank write bursts
system.mem_ctrls.perBankRdBursts::5             18556                       # Per bank write bursts
system.mem_ctrls.perBankRdBursts::6             18472                       # Per bank write bursts
system.mem_ctrls.perBankRdBursts::7             18588                       # Per bank write bursts
system.mem_ctrls.perBankRdBursts::8             18496                       # Per bank write bursts
system.mem_ctrls.perBankRdBursts::9             18496                       # Per bank write bursts
system.mem_ctrls.perBankRdBursts::10            18676                       # Per bank write bursts
system.mem_ctrls.perBankRdBursts::11            18648                       # Per bank write bursts
system.mem_ctrls.perBankRdBursts::12            18612                       # Per bank write bursts
system.mem_ctrls.perBankRdBursts::13            18360                       # Per bank write bursts
system.mem_ctrls.perBankRdBursts::14            18365                       # Per bank write bursts
system.mem_ctrls.perBankRdBursts::15            18604                       # Per bank write bursts
system.mem_ctrls.perBankWrBursts::0             10112                       # Per bank write bursts
system.mem_ctrls.perBankWrBursts::1             10128                       # Per bank write bursts
system.mem_ctrls.perBankWrBursts::2             10188                       # Per bank write bursts
system.mem_ctrls.perBankWrBursts::3             10160                       # Per bank write bursts
system.mem_ctrls.perBankWrBursts::4             10104                       # Per bank write bursts
system.mem_ctrls.perBankWrBursts::5             10076                       # Per bank write bursts
system.mem_ctrls.perBankWrBursts::6             10052                       # Per bank write bursts
system.mem_ctrls.perBankWrBursts::7             10116                       # Per bank write bursts
system.mem_ctrls.perBankWrBursts::8             10028                       # Per bank write bursts
system.mem_ctrls.perBankWrBursts::9              9984                       # Per bank write bursts
system.mem_ctrls.perBankWrBursts::10             9984                       # Per bank write bursts
system.mem_ctrls.perBankWrBursts::11             9988                       # Per bank write bursts
system.mem_ctrls.perBankWrBursts::12             9980                       # Per bank write bursts
system.mem_ctrls.perBankWrBursts::13            10005                       # Per bank write bursts
system.mem_ctrls.perBankWrBursts::14             9992                       # Per bank write bursts
system.mem_ctrls.perBankWrBursts::15            10032                       # Per bank write bursts
system.mem_ctrls.avgRdQLen                       4.09                       # Average read queue length when enqueuing
system.mem_ctrls.avgWrQLen                      27.76                       # Average write queue length when enqueuing
system.mem_ctrls.totQLat                  11627296500                       # Total ticks spent queuing
system.mem_ctrls.totBusLat                 1487205000                       # Total ticks spent in databus transfers
system.mem_ctrls.totMemAccLat             17204315250                       # Total ticks spent from burst creation until serviced by the DRAM
system.mem_ctrls.avgQLat                     39091.10                       # Average queueing delay per DRAM burst
system.mem_ctrls.avgBusLat                    5000.00                       # Average bus latency per DRAM burst
system.mem_ctrls.avgMemAccLat                57841.10                       # Average memory access latency per DRAM burst
system.mem_ctrls.numRdRetry                         0                       # Number of times read queue was full causing retry
system.mem_ctrls.numWrRetry                         0                       # Number of times write queue was full causing retry
system.mem_ctrls.readRowHits                   267810                       # Number of row buffer hits during reads
system.mem_ctrls.writeRowHits                  144941                       # Number of row buffer hits during writes
system.mem_ctrls.readRowHitRate                 90.04                       # Row buffer hit rate for reads
system.mem_ctrls.writeRowHitRate                90.06                       # Row buffer hit rate for writes
system.mem_ctrls.readPktSize::0                     0                       # Read request sizes (log2)
system.mem_ctrls.readPktSize::1                     0                       # Read request sizes (log2)
system.mem_ctrls.readPktSize::2                     0                       # Read request sizes (log2)
system.mem_ctrls.readPktSize::3                     0                       # Read request sizes (log2)
system.mem_ctrls.readPktSize::4                     0                       # Read request sizes (log2)
system.mem_ctrls.readPktSize::5                     0                       # Read request sizes (log2)
system.mem_ctrls.readPktSize::6                297468                       # Read request sizes (log2)
system.mem_ctrls.writePktSize::0                    0                       # Write request sizes (log2)
system.mem_ctrls.writePktSize::1                    0                       # Write request sizes (log2)
system.mem_ctrls.writePktSize::2                    0                       # Write request sizes (log2)
system.mem_ctrls.writePktSize::3                    0                       # Write request sizes (log2)
system.mem_ctrls.writePktSize::4                    0                       # Write request sizes (log2)
system.mem_ctrls.writePktSize::5                    0                       # Write request sizes (log2)
system.mem_ctrls.writePktSize::6               160944                       # Write request sizes (log2)
system.mem_ctrls.rdQLenPdf::0                   58564                       # What read queue length does an incoming req see
system.mem_ctrls.rdQLenPdf::1                   58641                       # What read queue length does an incoming req see
system.mem_ctrls.rdQLenPdf::2                   58759                       # What read queue length does an incoming req see
system.mem_ctrls.rdQLenPdf::3                   59855                       # What read queue length does an incoming req see
system.mem_ctrls.rdQLenPdf::4                   15794                       # What read queue length does an incoming req see
system.mem_ctrls.rdQLenPdf::5                   15716                       # What read queue length does an incoming req see
system.mem_ctrls.rdQLenPdf::6                   15598                       # What read queue length does an incoming req see
system.mem_ctrls.rdQLenPdf::7                   14502                       # What read queue length does an incoming req see
system.mem_ctrls.rdQLenPdf::8                       3                       # What read queue length does an incoming req see
system.mem_ctrls.rdQLenPdf::9                       3                       # What read queue length does an incoming req see
system.mem_ctrls.rdQLenPdf::10                      3                       # What read queue length does an incoming req see
system.mem_ctrls.rdQLenPdf::11                      3                       # What read queue length does an incoming req see
system.mem_ctrls.rdQLenPdf::12                      0                       # What read queue length does an incoming req see
system.mem_ctrls.rdQLenPdf::13                      0                       # What read queue length does an incoming req see
system.mem_ctrls.rdQLenPdf::14                      0                       # What read queue length does an incoming req see
system.mem_ctrls.rdQLenPdf::15                      0                       # What read queue length does an incoming req see
system.mem_ctrls.rdQLenPdf::16                      0                       # What read queue length does an incoming req see
system.mem_ctrls.rdQLenPdf::17                      0                       # What read queue length does an incoming req see
system.mem_ctrls.rdQLenPdf::18                      0                       # What read queue length does an incoming req see
system.mem_ctrls.rdQLenPdf::19                      0                       # What read queue length does an incoming req see
system.mem_ctrls.rdQLenPdf::20                      0                       # What read queue length does an incoming req see
system.mem_ctrls.rdQLenPdf::21                      0                       # What read queue length does an incoming req see
system.mem_ctrls.rdQLenPdf::22                      0                       # What read queue length does an incoming req see
system.mem_ctrls.rdQLenPdf::23                      0                       # What read queue length does an incoming req see
system.mem_ctrls.rdQLenPdf::24                      0                       # What read queue length does an incoming req see
system.mem_ctrls.rdQLenPdf::25                      0                       # What read queue length does an incoming req see
system.mem_ctrls.rdQLenPdf::26                      0                       # What read queue length does an incoming req see
system.mem_ctrls.rdQLenPdf::27                      0                       # What read queue length does an incoming req see
system.mem_ctrls.rdQLenPdf::28                      0                       # What read queue length does an incoming req see
system.mem_ctrls.rdQLenPdf::29                      0                       # What read queue length does an incoming req see
system.mem_ctrls.rdQLenPdf::30                      0                       # What read queue length does an incoming req see
system.mem_ctrls.rdQLenPdf::31                      0                       # What read queue length does an incoming req see
system.mem_ctrls.wrQLenPdf::0                       1                       # What write queue length does an incoming req see
system.mem_ctrls.wrQLenPdf::1                       1                       # What write queue length does an incoming req see
system.mem_ctrls.wrQLenPdf::2                       1                       # What write queue length does an incoming req see
system.mem_ctrls.wrQLenPdf::3                       1                       # What write queue length does an incoming req see
system.mem_ctrls.wrQLenPdf::4                       1                       # What write queue length does an incoming req see
system.mem_ctrls.wrQLenPdf::5                       1                       # What write queue length does an incoming req see
system.mem_ctrls.wrQLenPdf::6                       1                       # What write queue length does an incoming req see
system.mem_ctrls.wrQLenPdf::7                       1                       # What write queue length does an incoming req see
system.mem_ctrls.wrQLenPdf::8                       1                       # What write queue length does an incoming req see
system.mem_ctrls.wrQLenPdf::9                       1                       # What write queue length does an incoming req see
system.mem_ctrls.wrQLenPdf::10                      1                       # What write queue length does an incoming req see
system.mem_ctrls.wrQLenPdf::11                      1                       # What write queue length does an incoming req see
system.mem_ctrls.wrQLenPdf::12                      1                       # What write queue length does an incoming req see
system.mem_ctrls.wrQLenPdf::13                      1                       # What write queue length does an incoming req see
system.mem_ctrls.wrQLenPdf::14                      1                       # What write queue length does an incoming req see
system.mem_ctrls.wrQLenPdf::15                    686                       # What write queue length does an incoming req see
system.mem_ctrls.wrQLenPdf::16                    706                       # What write queue length does an incoming req see
system.mem_ctrls.wrQLenPdf::17                   1760                       # What write queue length does an incoming req see
system.mem_ctrls.wrQLenPdf::18                   2533                       # What write queue length does an incoming req see
system.mem_ctrls.wrQLenPdf::19                   4232                       # What write queue length does an incoming req see
system.mem_ctrls.wrQLenPdf::20                   5615                       # What write queue length does an incoming req see
system.mem_ctrls.wrQLenPdf::21                   6867                       # What write queue length does an incoming req see
system.mem_ctrls.wrQLenPdf::22                   7576                       # What write queue length does an incoming req see
system.mem_ctrls.wrQLenPdf::23                   9370                       # What write queue length does an incoming req see
system.mem_ctrls.wrQLenPdf::24                  10535                       # What write queue length does an incoming req see
system.mem_ctrls.wrQLenPdf::25                  10874                       # What write queue length does an incoming req see
system.mem_ctrls.wrQLenPdf::26                  11503                       # What write queue length does an incoming req see
system.mem_ctrls.wrQLenPdf::27                  11730                       # What write queue length does an incoming req see
system.mem_ctrls.wrQLenPdf::28                  12757                       # What write queue length does an incoming req see
system.mem_ctrls.wrQLenPdf::29                  12811                       # What write queue length does an incoming req see
system.mem_ctrls.wrQLenPdf::30                  12185                       # What write queue length does an incoming req see
system.mem_ctrls.wrQLenPdf::31                  11752                       # What write queue length does an incoming req see
system.mem_ctrls.wrQLenPdf::32                  10570                       # What write queue length does an incoming req see
system.mem_ctrls.wrQLenPdf::33                   7882                       # What write queue length does an incoming req see
system.mem_ctrls.wrQLenPdf::34                   6408                       # What write queue length does an incoming req see
system.mem_ctrls.wrQLenPdf::35                   2449                       # What write queue length does an incoming req see
system.mem_ctrls.wrQLenPdf::36                     49                       # What write queue length does an incoming req see
system.mem_ctrls.wrQLenPdf::37                     38                       # What write queue length does an incoming req see
system.mem_ctrls.wrQLenPdf::38                     27                       # What write queue length does an incoming req see
system.mem_ctrls.wrQLenPdf::39                     14                       # What write queue length does an incoming req see
system.mem_ctrls.wrQLenPdf::40                      0                       # What write queue length does an incoming req see
system.mem_ctrls.wrQLenPdf::41                      0                       # What write queue length does an incoming req see
system.mem_ctrls.wrQLenPdf::42                      0                       # What write queue length does an incoming req see
system.mem_ctrls.wrQLenPdf::43                      0                       # What write queue length does an incoming req see
system.mem_ctrls.wrQLenPdf::44                      0                       # What write queue length does an incoming req see
system.mem_ctrls.wrQLenPdf::45                      0                       # What write queue length does an incoming req see
system.mem_ctrls.wrQLenPdf::46                      0                       # What write queue length does an incoming req see
system.mem_ctrls.wrQLenPdf::47                      0                       # What write queue length does an incoming req see
system.mem_ctrls.wrQLenPdf::48                      0                       # What write queue length does an incoming req see
system.mem_ctrls.wrQLenPdf::49                      0                       # What write queue length does an incoming req see
system.mem_ctrls.wrQLenPdf::50                      0                       # What write queue length does an incoming req see
system.mem_ctrls.wrQLenPdf::51                      0                       # What write queue length does an incoming req see
system.mem_ctrls.wrQLenPdf::52                      0                       # What write queue length does an incoming req see
system.mem_ctrls.wrQLenPdf::53                      0                       # What write queue length does an incoming req see
system.mem_ctrls.wrQLenPdf::54                      0                       # What write queue length does an incoming req see
system.mem_ctrls.wrQLenPdf::55                      0                       # What write queue length does an incoming req see
system.mem_ctrls.wrQLenPdf::56                      0                       # What write queue length does an incoming req see
system.mem_ctrls.wrQLenPdf::57                      0                       # What write queue length does an incoming req see
system.mem_ctrls.wrQLenPdf::58                      0                       # What write queue length does an incoming req see
system.mem_ctrls.wrQLenPdf::59                      0                       # What write queue length does an incoming req see
system.mem_ctrls.wrQLenPdf::60                      0                       # What write queue length does an incoming req see
system.mem_ctrls.wrQLenPdf::61                      0                       # What write queue length does an incoming req see
system.mem_ctrls.wrQLenPdf::62                      0                       # What write queue length does an incoming req see
system.mem_ctrls.wrQLenPdf::63                      0                       # What write queue length does an incoming req see
system.mem_ctrls.bytesPerActivate::samples        45619                       # Bytes accessed per row activation
system.mem_ctrls.bytesPerActivate::mean    643.058375                       # Bytes accessed per row activation
system.mem_ctrls.bytesPerActivate::gmean   531.748391                       # Bytes accessed per row activation
system.mem_ctrls.bytesPerActivate::stdev   344.494176                       # Bytes accessed per row activation
system.mem_ctrls.bytesPerActivate::0-127          731      1.60%      1.60% # Bytes accessed per row activation
system.mem_ctrls.bytesPerActivate::128-255          831      1.82%      3.42% # Bytes accessed per row activation
system.mem_ctrls.bytesPerActivate::256-383        14718     32.26%     35.69% # Bytes accessed per row activation
system.mem_ctrls.bytesPerActivate::384-511         1077      2.36%     38.05% # Bytes accessed per row activation
system.mem_ctrls.bytesPerActivate::512-639         5653     12.39%     50.44% # Bytes accessed per row activation
system.mem_ctrls.bytesPerActivate::640-767         1040      2.28%     52.72% # Bytes accessed per row activation
system.mem_ctrls.bytesPerActivate::768-895         3332      7.30%     60.02% # Bytes accessed per row activation
system.mem_ctrls.bytesPerActivate::896-1023          514      1.13%     61.15% # Bytes accessed per row activation
system.mem_ctrls.bytesPerActivate::1024-1151        17723     38.85%    100.00% # Bytes accessed per row activation
system.mem_ctrls.bytesPerActivate::total        45619                       # Bytes accessed per row activation
system.mem_ctrls.rdPerTurnAround::samples         9852                       # Reads before turning the bus around for writes
system.mem_ctrls.rdPerTurnAround::mean      30.190926                       # Reads before turning the bus around for writes
system.mem_ctrls.rdPerTurnAround::gmean     21.863767                       # Reads before turning the bus around for writes
system.mem_ctrls.rdPerTurnAround::stdev    177.767063                       # Reads before turning the bus around for writes
system.mem_ctrls.rdPerTurnAround::0-1023         9850     99.98%     99.98% # Reads before turning the bus around for writes
system.mem_ctrls.rdPerTurnAround::1024-2047            1      0.01%     99.99% # Reads before turning the bus around for writes
system.mem_ctrls.rdPerTurnAround::16384-17407            1      0.01%    100.00% # Reads before turning the bus around for writes
system.mem_ctrls.rdPerTurnAround::total          9852                       # Reads before turning the bus around for writes
system.mem_ctrls.wrPerTurnAround::samples         9852                       # Writes before turning the bus around for reads
system.mem_ctrls.wrPerTurnAround::mean      16.334653                       # Writes before turning the bus around for reads
system.mem_ctrls.wrPerTurnAround::gmean     16.299807                       # Writes before turning the bus around for reads
system.mem_ctrls.wrPerTurnAround::stdev      1.143347                       # Writes before turning the bus around for reads
system.mem_ctrls.wrPerTurnAround::16             9047     91.83%     91.83% # Writes before turning the bus around for reads
system.mem_ctrls.wrPerTurnAround::17                4      0.04%     91.87% # Writes before turning the bus around for reads
system.mem_ctrls.wrPerTurnAround::18               22      0.22%     92.09% # Writes before turning the bus around for reads
[...]
system.cpu.icache.ReadReq_avg_miss_latency::.cpu.inst 70840.857788                       # average ReadReq miss latency
system.cpu.icache.ReadReq_avg_miss_latency::total 70840.857788                       # average ReadReq miss latency
system.cpu.icache.ReadReq_mshr_misses::.cpu.inst          443                       # number of ReadReq MSHR misses
system.cpu.icache.ReadReq_mshr_misses::total          443                       # number of ReadReq MSHR misses
system.cpu.icache.ReadReq_mshr_miss_latency::.cpu.inst     30939500                       # number of ReadReq MSHR miss cycles
system.cpu.icache.ReadReq_mshr_miss_latency::total     30939500                       # number of ReadReq MSHR miss cycles
system.cpu.icache.ReadReq_mshr_miss_rate::.cpu.inst     0.000063                       # mshr miss rate for ReadReq accesses
system.cpu.icache.ReadReq_mshr_miss_rate::total     0.000063                       # mshr miss rate for ReadReq accesses
system.cpu.icache.ReadReq_avg_mshr_miss_latency::.cpu.inst 69840.857788                       # average ReadReq mshr miss latency
system.cpu.icache.ReadReq_avg_mshr_miss_latency::total 69840.857788                       # average ReadReq mshr miss latency
system.cpu.icache.tags.pwrStateResidencyTicks::UNDEFINED  82443911000                       # Cumulative time (in ticks) in various power states
system.cpu.icache.tags.tagsinuse           112.575528                       # Cycle average of tags in use
system.cpu.icache.tags.total_refs             7020270                       # Total number of references to valid blocks.
system.cpu.icache.tags.sampled_refs               443                       # Sample count of references to valid blocks.
system.cpu.icache.tags.avg_refs          15847.110609                       # Average number of references to valid blocks.
system.cpu.icache.tags.warmup_cycle            102500                       # Cycle when the warmup percentage was hit.
system.cpu.icache.tags.occ_blocks::.cpu.inst   112.575528                       # Average occupied blocks per requestor
system.cpu.icache.tags.occ_percent::.cpu.inst     0.879496                       # Average percentage of cache occupancy
system.cpu.icache.tags.occ_percent::total     0.879496                       # Average percentage of cache occupancy
system.cpu.icache.tags.occ_task_id_blocks::1024          122                       # Occupied blocks per task id
system.cpu.icache.tags.age_task_id_blocks_1024::3           24                       # Occupied blocks per task id
system.cpu.icache.tags.age_task_id_blocks_1024::4           98                       # Occupied blocks per task id
system.cpu.icache.tags.occ_task_id_percent::1024     0.953125                       # Percentage of cache occupancy per task id
system.cpu.icache.tags.tag_accesses          14040983                       # Number of tag accesses
system.cpu.icache.tags.data_accesses         14040983                       # Number of data accesses
system.cpu.dtb.walker.pwrStateResidencyTicks::UNDEFINED  82443911000                       # Cumulative time (in ticks) in various power states
system.cpu.dtb.stage2_mmu.stage2_tlb.walker.pwrStateResidencyTicks::UNDEFINED  82443911000                       # Cumulative time (in ticks) in various power states
system.cpu.dcache.pwrStateResidencyTicks::UNDEFINED  82443911000                       # Cumulative time (in ticks) in various power states
system.cpu.dcache.demand_hits::.cpu.data     51263157                       # number of demand (read+write) hits
system.cpu.dcache.demand_hits::total         51263157                       # number of demand (read+write) hits
system.cpu.dcache.overall_hits::.cpu.data     51264421                       # number of overall hits
system.cpu.dcache.overall_hits::total        51264421                       # number of overall hits
system.cpu.dcache.demand_misses::.cpu.data       785986                       # number of demand (read+write) misses
system.cpu.dcache.demand_misses::total         785986                       # number of demand (read+write) misses
system.cpu.dcache.overall_misses::.cpu.data       793143                       # number of overall misses
system.cpu.dcache.overall_misses::total        793143                       # number of overall misses
system.cpu.dcache.demand_miss_latency::.cpu.data  19676266500                       # number of demand (read+write) miss cycles
system.cpu.dcache.demand_miss_latency::total  19676266500                       # number of demand (read+write) miss cycles
system.cpu.dcache.overall_miss_latency::.cpu.data  19676266500                       # number of overall miss cycles
system.cpu.dcache.overall_miss_latency::total  19676266500                       # number of overall miss cycles
system.cpu.dcache.demand_accesses::.cpu.data     52049143                       # number of demand (read+write) accesses
system.cpu.dcache.demand_accesses::total     52049143                       # number of demand (read+write) accesses
system.cpu.dcache.overall_accesses::.cpu.data     52057564                       # number of overall (read+write) accesses
system.cpu.dcache.overall_accesses::total     52057564                       # number of overall (read+write) accesses
system.cpu.dcache.demand_miss_rate::.cpu.data     0.015101                       # miss rate for demand accesses
system.cpu.dcache.demand_miss_rate::total     0.015101                       # miss rate for demand accesses
system.cpu.dcache.overall_miss_rate::.cpu.data     0.015236                       # miss rate for overall accesses
system.cpu.dcache.overall_miss_rate::total     0.015236                       # miss rate for overall accesses
system.cpu.dcache.demand_avg_miss_latency::.cpu.data 25033.863835                       # average overall miss latency
system.cpu.dcache.demand_avg_miss_latency::total 25033.863835                       # average overall miss latency
system.cpu.dcache.overall_avg_miss_latency::.cpu.data 24807.968424                       # average overall miss latency
system.cpu.dcache.overall_avg_miss_latency::total 24807.968424                       # average overall miss latency
system.cpu.dcache.blocked_cycles::no_mshrs            0                       # number of cycles access was blocked
system.cpu.dcache.blocked_cycles::no_targets            0                       # number of cycles access was blocked
system.cpu.dcache.blocked::no_mshrs                 0                       # number of cycles access was blocked
system.cpu.dcache.blocked::no_targets               0                       # number of cycles access was blocked
system.cpu.dcache.avg_blocked_cycles::no_mshrs          nan                       # average number of cycles each access was blocked
system.cpu.dcache.avg_blocked_cycles::no_targets          nan                       # average number of cycles each access was blocked
system.cpu.dcache.writebacks::.writebacks       747315                       # number of writebacks
system.cpu.dcache.writebacks::total            747315                       # number of writebacks
system.cpu.dcache.demand_mshr_hits::.cpu.data        18523                       # number of demand (read+write) MSHR hits
system.cpu.dcache.demand_mshr_hits::total        18523                       # number of demand (read+write) MSHR hits
system.cpu.dcache.overall_mshr_hits::.cpu.data        18523                       # number of overall MSHR hits
system.cpu.dcache.overall_mshr_hits::total        18523                       # number of overall MSHR hits
system.cpu.dcache.demand_mshr_misses::.cpu.data       767463                       # number of demand (read+write) MSHR misses
system.cpu.dcache.demand_mshr_misses::total       767463                       # number of demand (read+write) MSHR misses
system.cpu.dcache.overall_mshr_misses::.cpu.data       769443                       # number of overall MSHR misses
system.cpu.dcache.overall_mshr_misses::total       769443                       # number of overall MSHR misses
system.cpu.dcache.demand_mshr_miss_latency::.cpu.data  17313954000                       # number of demand (read+write) MSHR miss cycles
system.cpu.dcache.demand_mshr_miss_latency::total  17313954000                       # number of demand (read+write) MSHR miss cycles
system.cpu.dcache.overall_mshr_miss_latency::.cpu.data  17492517000                       # number of overall MSHR miss cycles
system.cpu.dcache.overall_mshr_miss_latency::total  17492517000                       # number of overall MSHR miss cycles
system.cpu.dcache.demand_mshr_miss_rate::.cpu.data     0.014745                       # mshr miss rate for demand accesses
system.cpu.dcache.demand_mshr_miss_rate::total     0.014745                       # mshr miss rate for demand accesses
system.cpu.dcache.overall_mshr_miss_rate::.cpu.data     0.014781                       # mshr miss rate for overall accesses
system.cpu.dcache.overall_mshr_miss_rate::total     0.014781                       # mshr miss rate for overall accesses
system.cpu.dcache.demand_avg_mshr_miss_latency::.cpu.data 22559.985302                       # average overall mshr miss latency
system.cpu.dcache.demand_avg_mshr_miss_latency::total 22559.985302                       # average overall mshr miss latency
system.cpu.dcache.overall_avg_mshr_miss_latency::.cpu.data 22733.999789                       # average overall mshr miss latency
system.cpu.dcache.overall_avg_mshr_miss_latency::total 22733.999789                       # average overall mshr miss latency
system.cpu.dcache.replacements                 769187                       # number of replacements
system.cpu.dcache.ReadReq_hits::.cpu.data     40655959                       # number of ReadReq hits
system.cpu.dcache.ReadReq_hits::total        40655959                       # number of ReadReq hits
system.cpu.dcache.ReadReq_misses::.cpu.data       442876                       # number of ReadReq misses
system.cpu.dcache.ReadReq_misses::total        442876                       # number of ReadReq misses
system.cpu.dcache.ReadReq_miss_latency::.cpu.data   7671724000                       # number of ReadReq miss cycles
system.cpu.dcache.ReadReq_miss_latency::total   7671724000                       # number of ReadReq miss cycles
system.cpu.dcache.ReadReq_accesses::.cpu.data     41098835                       # number of ReadReq accesses(hits+misses)
system.cpu.dcache.ReadReq_accesses::total     41098835                       # number of ReadReq accesses(hits+misses)
system.cpu.dcache.ReadReq_miss_rate::.cpu.data     0.010776                       # miss rate for ReadReq accesses
system.cpu.dcache.ReadReq_miss_rate::total     0.010776                       # miss rate for ReadReq accesses
system.cpu.dcache.ReadReq_avg_miss_latency::.cpu.data 17322.510138                       # average ReadReq miss latency
system.cpu.dcache.ReadReq_avg_miss_latency::total 17322.510138                       # average ReadReq miss latency
system.cpu.dcache.ReadReq_mshr_hits::.cpu.data         1979                       # number of ReadReq MSHR hits
system.cpu.dcache.ReadReq_mshr_hits::total         1979                       # number of ReadReq MSHR hits
system.cpu.dcache.ReadReq_mshr_misses::.cpu.data       440897                       # number of ReadReq MSHR misses
system.cpu.dcache.ReadReq_mshr_misses::total       440897                       # number of ReadReq MSHR misses
system.cpu.dcache.ReadReq_mshr_miss_latency::.cpu.data   7076784000                       # number of ReadReq MSHR miss cycles
system.cpu.dcache.ReadReq_mshr_miss_latency::total   7076784000                       # number of ReadReq MSHR miss cycles
system.cpu.dcache.ReadReq_mshr_miss_rate::.cpu.data     0.010728                       # mshr miss rate for ReadReq accesses
system.cpu.dcache.ReadReq_mshr_miss_rate::total     0.010728                       # mshr miss rate for ReadReq accesses
system.cpu.dcache.ReadReq_avg_mshr_miss_latency::.cpu.data 16050.878096                       # average ReadReq mshr miss latency
system.cpu.dcache.ReadReq_avg_mshr_miss_latency::total 16050.878096                       # average ReadReq mshr miss latency
system.cpu.dcache.WriteReq_hits::.cpu.data     10607198                       # number of WriteReq hits
system.cpu.dcache.WriteReq_hits::total       10607198                       # number of WriteReq hits
system.cpu.dcache.WriteReq_misses::.cpu.data       343110                       # number of WriteReq misses
system.cpu.dcache.WriteReq_misses::total       343110                       # number of WriteReq misses
system.cpu.dcache.WriteReq_miss_latency::.cpu.data  12004542500                       # number of WriteReq miss cycles
system.cpu.dcache.WriteReq_miss_latency::total  12004542500                       # number of WriteReq miss cycles
system.cpu.dcache.WriteReq_accesses::.cpu.data     10950308                       # number of WriteReq accesses(hits+misses)
system.cpu.dcache.WriteReq_accesses::total     10950308                       # number of WriteReq accesses(hits+misses)
system.cpu.dcache.WriteReq_miss_rate::.cpu.data     0.031333                       # miss rate for WriteReq accesses
system.cpu.dcache.WriteReq_miss_rate::total     0.031333                       # miss rate for WriteReq accesses
system.cpu.dcache.WriteReq_avg_miss_latency::.cpu.data 34987.445717                       # average WriteReq miss latency
system.cpu.dcache.WriteReq_avg_miss_latency::total 34987.445717                       # average WriteReq miss latency
system.cpu.dcache.WriteReq_mshr_hits::.cpu.data        16544                       # number of WriteReq MSHR hits
system.cpu.dcache.WriteReq_mshr_hits::total        16544                       # number of WriteReq MSHR hits
system.cpu.dcache.WriteReq_mshr_misses::.cpu.data       326566                       # number of WriteReq MSHR misses
system.cpu.dcache.WriteReq_mshr_misses::total       326566                       # number of WriteReq MSHR misses
system.cpu.dcache.WriteReq_mshr_miss_latency::.cpu.data  10237170000                       # number of WriteReq MSHR miss cycles
system.cpu.dcache.WriteReq_mshr_miss_latency::total  10237170000                       # number of WriteReq MSHR miss cycles
system.cpu.dcache.WriteReq_mshr_miss_rate::.cpu.data     0.029823                       # mshr miss rate for WriteReq accesses
system.cpu.dcache.WriteReq_mshr_miss_rate::total     0.029823                       # mshr miss rate for WriteReq accesses
system.cpu.dcache.WriteReq_avg_mshr_miss_latency::.cpu.data 31347.935792                       # average WriteReq mshr miss latency
system.cpu.dcache.WriteReq_avg_mshr_miss_latency::total 31347.935792                       # average WriteReq mshr miss latency
system.cpu.dcache.SoftPFReq_hits::.cpu.data         1264                       # number of SoftPFReq hits
system.cpu.dcache.SoftPFReq_hits::total          1264                       # number of SoftPFReq hits
system.cpu.dcache.SoftPFReq_misses::.cpu.data         7157                       # number of SoftPFReq misses
system.cpu.dcache.SoftPFReq_misses::total         7157                       # number of SoftPFReq misses
system.cpu.dcache.SoftPFReq_accesses::.cpu.data         8421                       # number of SoftPFReq accesses(hits+misses)
system.cpu.dcache.SoftPFReq_accesses::total         8421                       # number of SoftPFReq accesses(hits+misses)
system.cpu.dcache.SoftPFReq_miss_rate::.cpu.data     0.849899                       # miss rate for SoftPFReq accesses
system.cpu.dcache.SoftPFReq_miss_rate::total     0.849899                       # miss rate for SoftPFReq accesses
system.cpu.dcache.SoftPFReq_mshr_misses::.cpu.data         1980                       # number of SoftPFReq MSHR misses
system.cpu.dcache.SoftPFReq_mshr_misses::total         1980                       # number of SoftPFReq MSHR misses
system.cpu.dcache.SoftPFReq_mshr_miss_latency::.cpu.data    178563000                       # number of SoftPFReq MSHR miss cycles
system.cpu.dcache.SoftPFReq_mshr_miss_latency::total    178563000                       # number of SoftPFReq MSHR miss cycles
system.cpu.dcache.SoftPFReq_mshr_miss_rate::.cpu.data     0.235126                       # mshr miss rate for SoftPFReq accesses
system.cpu.dcache.SoftPFReq_mshr_miss_rate::total     0.235126                       # mshr miss rate for SoftPFReq accesses
system.cpu.dcache.SoftPFReq_avg_mshr_miss_latency::.cpu.data 90183.333333                       # average SoftPFReq mshr miss latency
system.cpu.dcache.SoftPFReq_avg_mshr_miss_latency::total 90183.333333                       # average SoftPFReq mshr miss latency
system.cpu.dcache.LoadLockedReq_hits::.cpu.data           38                       # number of LoadLockedReq hits
system.cpu.dcache.LoadLockedReq_hits::total           38                       # number of LoadLockedReq hits
system.cpu.dcache.LoadLockedReq_accesses::.cpu.data           38                       # number of LoadLockedReq accesses(hits+misses)
system.cpu.dcache.LoadLockedReq_accesses::total           38                       # number of LoadLockedReq accesses(hits+misses)
system.cpu.dcache.StoreCondReq_hits::.cpu.data           38                       # number of StoreCondReq hits
system.cpu.dcache.StoreCondReq_hits::total           38                       # number of StoreCondReq hits
system.cpu.dcache.StoreCondReq_accesses::.cpu.data           38                       # number of StoreCondReq accesses(hits+misses)
system.cpu.dcache.StoreCondReq_accesses::total           38                       # number of StoreCondReq accesses(hits+misses)
system.cpu.dcache.tags.pwrStateResidencyTicks::UNDEFINED  82443911000                       # Cumulative time (in ticks) in various power states
system.cpu.dcache.tags.tagsinuse           251.993447                       # Cycle average of tags in use
system.cpu.dcache.tags.total_refs            52033940                       # Total number of references to valid blocks.
system.cpu.dcache.tags.sampled_refs            769443                       # Sample count of references to valid blocks.
system.cpu.dcache.tags.avg_refs             67.625464                       # Average number of references to valid blocks.
system.cpu.dcache.tags.warmup_cycle            210500                       # Cycle when the warmup percentage was hit.
system.cpu.dcache.tags.occ_blocks::.cpu.data   251.993447                       # Average occupied blocks per requestor
system.cpu.dcache.tags.occ_percent::.cpu.data     0.984349                       # Average percentage of cache occupancy
system.cpu.dcache.tags.occ_percent::total     0.984349                       # Average percentage of cache occupancy
system.cpu.dcache.tags.occ_task_id_blocks::1024          256                       # Occupied blocks per task id
system.cpu.dcache.tags.age_task_id_blocks_1024::0          179                       # Occupied blocks per task id
system.cpu.dcache.tags.age_task_id_blocks_1024::1           76                       # Occupied blocks per task id
system.cpu.dcache.tags.age_task_id_blocks_1024::2            1                       # Occupied blocks per task id
system.cpu.dcache.tags.occ_task_id_percent::1024            1                       # Percentage of cache occupancy per task id
system.cpu.dcache.tags.tag_accesses         104884723                       # Number of tag accesses
system.cpu.dcache.tags.data_accesses        104884723                       # Number of data accesses
system.cpu.itb.walker.pwrStateResidencyTicks::UNDEFINED  82443911000                       # Cumulative time (in ticks) in various power states
system.cpu.itb.stage2_mmu.stage2_tlb.walker.pwrStateResidencyTicks::UNDEFINED  82443911000                       # Cumulative time (in ticks) in various power states

---------- End Simulation Statistics   ----------
