
---------- Begin Simulation Statistics ----------
final_tick                                66553779000                       # Number of ticks from beginning of simulation (restored from checkpoints and never reset)
host_inst_rate                                 227278                       # Simulator instruction rate (inst/s)
host_mem_usage                                 686748                       # Number of bytes of host memory used
host_op_rate                                   248714                       # Simulator op (including micro ops) rate (op/s)
host_seconds                                   439.99                       # Real time elapsed on the host
host_tick_rate                              151261818                       # Simulator tick rate (ticks/s)
sim_freq                                 1000000000000                       # Frequency of simulated ticks
sim_insts                                   100000001                       # Number of instructions simulated
sim_ops                                     109431937                       # Number of ops (including micro ops) simulated
sim_seconds                                  0.066554                       # Number of seconds simulated
sim_ticks                                 66553779000                       # Number of ticks simulated
system.cpu.branchPred.BTBCorrect                    0                       # Number of correct BTB predictions (this stat may not work properly.
system.cpu.branchPred.BTBHitPct             87.605941                       # BTB Hit Percentage
system.cpu.branchPred.BTBHits                 8698803                       # Number of BTB hits
system.cpu.branchPred.BTBLookups              9929467                       # Number of BTB lookups
system.cpu.branchPred.RASInCorrect                348                       # Number of incorrect RAS predictions.
system.cpu.branchPred.condIncorrect            154854                       # Number of conditional branches incorrect
system.cpu.branchPred.condPredicted          16493007                       # Number of conditional branches predicted
system.cpu.branchPred.indirectHits             300027                       # Number of indirect target hits.
system.cpu.branchPred.indirectLookups          523195                       # Number of indirect predictor lookups.
system.cpu.branchPred.indirectMisses           223168                       # Number of indirect misses.
system.cpu.branchPred.lookups                20555388                       # Number of BP lookups
system.cpu.branchPred.usedRAS                 1050571                       # Number of times the RAS was used to get a target.
system.cpu.branchPredindirectMispredicted         1043                       # Number of mispredicted indirect branches.
system.cpu.committedInsts                   100000001                       # Number of instructions committed
system.cpu.committedOps                     109431937                       # Number of ops (including micro ops) committed
system.cpu.cpi                               1.331076                       # CPI: cycles per instruction
system.cpu.discardedOps                        719549                       # Number of ops (including micro ops) which were discarded before commit
system.cpu.dtb.accesses                             0                       # DTB accesses
system.cpu.dtb.align_faults                         0                       # Number of TLB faults due to alignment restrictions
system.cpu.dtb.domain_faults                        0                       # Number of TLB faults due to domain restrictions
system.cpu.dtb.flush_entries                        0                       # Number of entries that have been flushed from TLB
system.cpu.dtb.flush_tlb                            0                       # Number of times complete TLB was flushed
system.cpu.dtb.flush_tlb_asid                       0                       # Number of times TLB was flushed by ASID
system.cpu.dtb.flush_tlb_mva                        0                       # Number of times TLB was flushed by MVA
system.cpu.dtb.flush_tlb_mva_asid                   0                       # Number of times TLB was flushed by MVA & ASID
system.cpu.dtb.hits                                 0                       # DTB hits
system.cpu.dtb.inst_accesses                        0                       # ITB inst accesses
system.cpu.dtb.inst_hits                            0                       # ITB inst hits
system.cpu.dtb.inst_misses                          0                       # ITB inst misses
system.cpu.dtb.misses                               0                       # DTB misses
system.cpu.dtb.perms_faults                         0                       # Number of TLB faults due to permissions restrictions
system.cpu.dtb.prefetch_faults                      0                       # Number of TLB faults due to prefetch
system.cpu.dtb.read_accesses                        0                       # DTB read accesses
system.cpu.dtb.read_hits                            0                       # DTB read hits
system.cpu.dtb.read_misses                          0                       # DTB read misses
system.cpu.dtb.stage2_mmu.stage2_tlb.accesses            0                       # DTB accesses
system.cpu.dtb.stage2_mmu.stage2_tlb.align_faults            0                       # Number of TLB faults due to alignment restrictions
system.cpu.dtb.stage2_mmu.stage2_tlb.domain_faults            0                       # Number of TLB faults due to domain restrictions
system.cpu.dtb.stage2_mmu.stage2_tlb.flush_entries            0                       # Number of entries that have been flushed from TLB
system.cpu.dtb.stage2_mmu.stage2_tlb.flush_tlb            0                       # Number of times complete TLB was flushed
system.cpu.dtb.stage2_mmu.stage2_tlb.flush_tlb_asid            0                       # Number of times TLB was flushed by ASID
system.cpu.dtb.stage2_mmu.stage2_tlb.flush_tlb_mva            0                       # Number of times TLB was flushed by MVA
system.cpu.dtb.stage2_mmu.stage2_tlb.flush_tlb_mva_asid            0                       # Number of times TLB was flushed by MVA & ASID
system.cpu.dtb.stage2_mmu.stage2_tlb.hits            0                       # DTB hits
system.cpu.dtb.stage2_mmu.stage2_tlb.inst_accesses            0                       # ITB inst accesses
system.cpu.dtb.stage2_mmu.stage2_tlb.inst_hits            0                       # ITB inst hits
system.cpu.dtb.stage2_mmu.stage2_tlb.inst_misses            0                       # ITB inst misses
system.cpu.dtb.stage2_mmu.stage2_tlb.misses            0                       # DTB misses
system.cpu.dtb.stage2_mmu.stage2_tlb.perms_faults            0                       # Number of TLB faults due to permissions restrictions
system.cpu.dtb.stage2_mmu.stage2_tlb.prefetch_faults            0                       # Number of TLB faults due to prefetch
system.cpu.dtb.stage2_mmu.stage2_tlb.read_accesses            0                       # DTB read accesses
system.cpu.dtb.stage2_mmu.stage2_tlb.read_hits            0                       # DTB read hits
system.cpu.dtb.stage2_mmu.stage2_tlb.read_misses            0                       # DTB read misses
system.cpu.dtb.stage2_mmu.stage2_tlb.walker.walkRequestOrigin_Requested::Data            0                       # Table walker requests started/completed, data/inst
system.cpu.dtb.stage2_mmu.stage2_tlb.walker.walkRequestOrigin_Requested::Inst            0                       # Table walker requests started/completed, data/inst
system.cpu.dtb.stage2_mmu.stage2_tlb.walker.walkRequestOrigin_Requested::total            0                       # Table walker requests started/completed, data/inst
system.cpu.dtb.stage2_mmu.stage2_tlb.walker.walkRequestOrigin_Completed::Data            0                       # Table walker requests started/completed, data/inst
system.cpu.dtb.stage2_mmu.stage2_tlb.walker.walkRequestOrigin_Completed::Inst            0                       # Table walker requests started/completed, data/inst
system.cpu.dtb.stage2_mmu.stage2_tlb.walker.walkRequestOrigin_Completed::total            0                       # Table walker requests started/completed, data/inst
system.cpu.dtb.stage2_mmu.stage2_tlb.walker.walkRequestOrigin::total            0                       # Table walker requests started/completed, data/inst
system.cpu.dtb.stage2_mmu.stage2_tlb.walker.walks            0                       # Table walker walks requested
system.cpu.dtb.stage2_mmu.stage2_tlb.write_accesses            0                       # DTB write accesses
system.cpu.dtb.stage2_mmu.stage2_tlb.write_hits            0                       # DTB write hits
system.cpu.dtb.stage2_mmu.stage2_tlb.write_misses            0                       # DTB write misses
system.cpu.dtb.walker.walkRequestOrigin_Requested::Data            0                       # Table walker requests started/completed, data/inst
system.cpu.dtb.walker.walkRequestOrigin_Requested::Inst            0                       # Table walker requests started/completed, data/inst
system.cpu.dtb.walker.walkRequestOrigin_Requested::total            0                       # Table walker requests started/completed, data/inst
system.cpu.dtb.walker.walkRequestOrigin_Completed::Data            0                       # Table walker requests started/completed, data/inst
system.cpu.dtb.walker.walkRequestOrigin_Completed::Inst            0                       # Table walker requests started/completed, data/inst
system.cpu.dtb.walker.walkRequestOrigin_Completed::total            0                       # Table walker requests started/completed, data/inst
system.cpu.dtb.walker.walkRequestOrigin::total            0                       # Table walker requests started/completed, data/inst
system.cpu.dtb.walker.walks                         0                       # Table walker walks requested
system.cpu.dtb.write_accesses                       0                       # DTB write accesses
system.cpu.dtb.write_hits                           0                       # DTB write hits
system.cpu.dtb.write_misses                         0                       # DTB write misses
system.cpu.fetch2.amo_instructions                  0                       # Number of memory atomic instructions successfully decoded
system.cpu.fetch2.fp_instructions                   0                       # Number of floating point instructions successfully decoded
system.cpu.fetch2.int_instructions           49722842                       # Number of integer instructions successfully decoded
system.cpu.fetch2.load_instructions          17195012                       # Number of memory load instructions successfully decoded
system.cpu.fetch2.store_instructions          9990379                       # Number of memory store instructions successfully decoded
system.cpu.fetch2.vec_instructions                  0                       # Number of SIMD instructions successfully decoded
system.cpu.idleCycles                        15019021                       # Total number of cycles that the object has spent stopped
system.cpu.ipc                               0.751272                       # IPC: instructions per cycle
system.cpu.itb.accesses                             0                       # DTB accesses
system.cpu.itb.align_faults                         0                       # Number of TLB faults due to alignment restrictions
system.cpu.itb.domain_faults                        0                       # Number of TLB faults due to domain restrictions
system.cpu.itb.flush_entries                        0                       # Number of entries that have been flushed from TLB
system.cpu.itb.flush_tlb                            0                       # Number of times complete TLB was flushed
system.cpu.itb.flush_tlb_asid                       0                       # Number of times TLB was flushed by ASID
system.cpu.itb.flush_tlb_mva                        0                       # Number of times TLB was flushed by MVA
system.cpu.itb.flush_tlb_mva_asid                   0                       # Number of times TLB was flushed by MVA & ASID
system.cpu.itb.hits                                 0                       # DTB hits
system.cpu.itb.inst_accesses                        0                       # ITB inst accesses
system.cpu.itb.inst_hits                            0                       # ITB inst hits
system.cpu.itb.inst_misses                          0                       # ITB inst misses
system.cpu.itb.misses                               0                       # DTB misses
system.cpu.itb.perms_faults                         0                       # Number of TLB faults due to permissions restrictions
system.cpu.itb.prefetch_faults                      0                       # Number of TLB faults due to prefetch
system.cpu.itb.read_accesses                        0                       # DTB read accesses
system.cpu.itb.read_hits                            0                       # DTB read hits
system.cpu.itb.read_misses                          0                       # DTB read misses
system.cpu.itb.stage2_mmu.stage2_tlb.accesses            0                       # DTB accesses
system.cpu.itb.stage2_mmu.stage2_tlb.align_faults            0                       # Number of TLB faults due to alignment restrictions
system.cpu.itb.stage2_mmu.stage2_tlb.domain_faults            0                       # Number of TLB faults due to domain restrictions
system.cpu.itb.stage2_mmu.stage2_tlb.flush_entries            0                       # Number of entries that have been flushed from TLB
system.cpu.itb.stage2_mmu.stage2_tlb.flush_tlb            0                       # Number of times complete TLB was flushed
system.cpu.itb.stage2_mmu.stage2_tlb.flush_tlb_asid            0                       # Number of times TLB was flushed by ASID
system.cpu.itb.stage2_mmu.stage2_tlb.flush_tlb_mva            0                       # Number of times TLB was flushed by MVA
system.cpu.itb.stage2_mmu.stage2_tlb.flush_tlb_mva_asid            0                       # Number of times TLB was flushed by MVA & ASID
system.cpu.itb.stage2_mmu.stage2_tlb.hits            0                       # DTB hits
system.cpu.itb.stage2_mmu.stage2_tlb.inst_accesses            0                       # ITB inst accesses
system.cpu.itb.stage2_mmu.stage2_tlb.inst_hits            0                       # ITB inst hits
system.cpu.itb.stage2_mmu.stage2_tlb.inst_misses            0                       # ITB inst misses
system.cpu.itb.stage2_mmu.stage2_tlb.misses            0                       # DTB misses
system.cpu.itb.stage2_mmu.stage2_tlb.perms_faults            0                       # Number of TLB faults due to permissions restrictions
system.cpu.itb.stage2_mmu.stage2_tlb.prefetch_faults            0                       # Number of TLB faults due to prefetch
system.cpu.itb.stage2_mmu.stage2_tlb.read_accesses            0                       # DTB read accesses
system.cpu.itb.stage2_mmu.stage2_tlb.read_hits            0                       # DTB read hits
system.cpu.itb.stage2_mmu.stage2_tlb.read_misses            0                       # DTB read misses
system.cpu.itb.stage2_mmu.stage2_tlb.walker.walkRequestOrigin_Requested::Data            0                       # Table walker requests started/completed, data/inst
system.cpu.itb.stage2_mmu.stage2_tlb.walker.walkRequestOrigin_Requested::Inst            0                       # Table walker requests started/completed, data/inst
system.cpu.itb.stage2_mmu.stage2_tlb.walker.walkRequestOrigin_Requested::total            0                       # Table walker requests started/completed, data/inst
system.cpu.itb.stage2_mmu.stage2_tlb.walker.walkRequestOrigin_Completed::Data            0                       # Table walker requests started/completed, data/inst
system.cpu.itb.stage2_mmu.stage2_tlb.walker.walkRequestOrigin_Completed::Inst            0                       # Table walker requests started/completed, data/inst
system.cpu.itb.stage2_mmu.stage2_tlb.walker.walkRequestOrigin_Completed::total            0                       # Table walker requests started/completed, data/inst
system.cpu.itb.stage2_mmu.stage2_tlb.walker.walkRequestOrigin::total            0                       # Table walker requests started/completed, data/inst
system.cpu.itb.stage2_mmu.stage2_tlb.walker.walks            0                       # Table walker walks requested
system.cpu.itb.stage2_mmu.stage2_tlb.write_accesses            0                       # DTB write accesses
system.cpu.itb.stage2_mmu.stage2_tlb.write_hits            0                       # DTB write hits
system.cpu.itb.stage2_mmu.stage2_tlb.write_misses            0                       # DTB write misses
system.cpu.itb.walker.walkRequestOrigin_Requested::Data            0                       # Table walker requests started/completed, data/inst
system.cpu.itb.walker.walkRequestOrigin_Requested::Inst            0                       # Table walker requests started/completed, data/inst
system.cpu.itb.walker.walkRequestOrigin_Requested::total            0                       # Table walker requests started/completed, data/inst
system.cpu.itb.walker.walkRequestOrigin_Completed::Data            0                       # Table walker requests started/completed, data/inst
system.cpu.itb.walker.walkRequestOrigin_Completed::Inst            0                       # Table walker requests started/completed, data/inst
system.cpu.itb.walker.walkRequestOrigin_Completed::total            0                       # Table walker requests started/completed, data/inst
system.cpu.itb.walker.walkRequestOrigin::total            0                       # Table walker requests started/completed, data/inst
system.cpu.itb.walker.walks                         0                       # Table walker walks requested
system.cpu.itb.write_accesses                       0                       # DTB write accesses
system.cpu.itb.write_hits                           0                       # DTB write hits
system.cpu.itb.write_misses                         0                       # DTB write misses
system.cpu.numCycles                        133107558                       # number of cpu cycles simulated
system.cpu.numFetchSuspends                         0                       # Number of times Execute suspended instruction fetching
system.cpu.numWorkItemsCompleted                    0                       # number of work items this cpu completed
system.cpu.numWorkItemsStarted                      0                       # number of work items this cpu started
system.cpu.op_class_0::No_OpClass                   0      0.00%      0.00% # Class of committed instruction
system.cpu.op_class_0::IntAlu                72955303     66.67%     66.67% # Class of committed instruction
system.cpu.op_class_0::IntMult                 568365      0.52%     67.19% # Class of committed instruction
system.cpu.op_class_0::IntDiv                       0      0.00%     67.19% # Class of committed instruction
system.cpu.op_class_0::FloatAdd                     0      0.00%     67.19% # Class of committed instruction
system.cpu.op_class_0::FloatCmp                     0      0.00%     67.19% # Class of committed instruction
system.cpu.op_class_0::FloatCvt                     0      0.00%     67.19% # Class of committed instruction
system.cpu.op_class_0::FloatMult                    0      0.00%     67.19% # Class of committed instruction
system.cpu.op_class_0::FloatMultAcc                 0      0.00%     67.19% # Class of committed instruction
system.cpu.op_class_0::FloatDiv                     0      0.00%     67.19% # Class of committed instruction
system.cpu.op_class_0::FloatMisc                    0      0.00%     67.19% # Class of committed instruction
system.cpu.op_class_0::FloatSqrt                    0      0.00%     67.19% # Class of committed instruction
system.cpu.op_class_0::SimdAdd                 241252      0.22%     67.41% # Class of committed instruction
system.cpu.op_class_0::SimdAddAcc                   0      0.00%     67.41% # Class of committed instruction
system.cpu.op_class_0::SimdAlu                 154720      0.14%     67.55% # Class of committed instruction
system.cpu.op_class_0::SimdCmp                 120626      0.11%     67.66% # Class of committed instruction
system.cpu.op_class_0::SimdCvt                      0      0.00%     67.66% # Class of committed instruction
system.cpu.op_class_0::SimdMisc                 44544      0.04%     67.70% # Class of committed instruction
system.cpu.op_class_0::SimdMult                     0      0.00%     67.70% # Class of committed instruction
system.cpu.op_class_0::SimdMultAcc                  0      0.00%     67.70% # Class of committed instruction
system.cpu.op_class_0::SimdShift                    0      0.00%     67.70% # Class of committed instruction
system.cpu.op_class_0::SimdShiftAcc                 0      0.00%     67.70% # Class of committed instruction
system.cpu.op_class_0::SimdDiv                      0      0.00%     67.70% # Class of committed instruction
system.cpu.op_class_0::SimdSqrt                     0      0.00%     67.70% # Class of committed instruction
system.cpu.op_class_0::SimdFloatAdd                 0      0.00%     67.70% # Class of committed instruction
system.cpu.op_class_0::SimdFloatAlu                 0      0.00%     67.70% # Class of committed instruction
system.cpu.op_class_0::SimdFloatCmp                 0      0.00%     67.70% # Class of committed instruction
system.cpu.op_class_0::SimdFloatCvt                 0      0.00%     67.70% # Class of committed instruction
system.cpu.op_class_0::SimdFloatDiv                 0      0.00%     67.70% # Class of committed instruction
system.cpu.op_class_0::SimdFloatMisc           166465      0.15%     67.85% # Class of committed instruction
system.cpu.op_class_0::SimdFloatMult                0      0.00%     67.85% # Class of committed instruction
system.cpu.op_class_0::SimdFloatMultAcc             0      0.00%     67.85% # Class of committed instruction
system.cpu.op_class_0::SimdFloatSqrt                0      0.00%     67.85% # Class of committed instruction
system.cpu.op_class_0::SimdReduceAdd                0      0.00%     67.85% # Class of committed instruction
system.cpu.op_class_0::SimdReduceAlu                0      0.00%     67.85% # Class of committed instruction
system.cpu.op_class_0::SimdReduceCmp                0      0.00%     67.85% # Class of committed instruction
system.cpu.op_class_0::SimdFloatReduceAdd            0      0.00%     67.85% # Class of committed instruction
system.cpu.op_class_0::SimdFloatReduceCmp            0      0.00%     67.85% # Class of committed instruction
system.cpu.op_class_0::SimdAes                      0      0.00%     67.85% # Class of committed instruction
system.cpu.op_class_0::SimdAesMix                   0      0.00%     67.85% # Class of committed instruction
system.cpu.op_class_0::SimdSha1Hash                 0      0.00%     67.85% # Class of committed instruction
system.cpu.op_class_0::SimdSha1Hash2                0      0.00%     67.85% # Class of committed instruction
system.cpu.op_class_0::SimdSha256Hash               0      0.00%     67.85% # Class of committed instruction
system.cpu.op_class_0::SimdSha256Hash2              0      0.00%     67.85% # Class of committed instruction
system.cpu.op_class_0::SimdShaSigma2                0      0.00%     67.85% # Class of committed instruction
system.cpu.op_class_0::SimdShaSigma3                0      0.00%     67.85% # Class of committed instruction
system.cpu.op_class_0::SimdPredAlu                  0      0.00%     67.85% # Class of committed instruction
system.cpu.op_class_0::MemRead               20646465     18.87%     86.72% # Class of committed instruction
system.cpu.op_class_0::MemWrite              14534197     13.28%    100.00% # Class of committed instruction
system.cpu.op_class_0::FloatMemRead                 0      0.00%    100.00% # Class of committed instruction
system.cpu.op_class_0::FloatMemWrite                0      0.00%    100.00% # Class of committed instruction
system.cpu.op_class_0::IprAccess                    0      0.00%    100.00% # Class of committed instruction
system.cpu.op_class_0::InstPrefetch                 0      0.00%    100.00% # Class of committed instruction
system.cpu.op_class_0::total                109431937                       # Class of committed instruction
system.cpu.tickCycles                       118088537                       # Number of cycles that the object actually ticked
system.cpu.workload.numSyscalls                    86                       # Number of system calls
system.membus.snoop_filter.hit_multi_requests            0                       # Number of requests hitting in the snoop filter with multiple (>1) holders of the requested data.
system.membus.snoop_filter.hit_multi_snoops            0                       # Number of snoops hitting in the snoop filter with multiple (>1) holders of the requested data.
system.membus.snoop_filter.hit_single_requests         3533                       # Number of requests hitting in the snoop filter with a single holder of the requested data.
system.membus.snoop_filter.hit_single_snoops            0                       # Number of snoops hitting in the snoop filter with a single holder of the requested data.
system.membus.snoop_filter.tot_requests         23622                       # Total number of requests made to the snoop filter.
system.membus.snoop_filter.tot_snoops               0                       # Total number of snoops made to the snoop filter.
system.tol2bus.snoop_filter.hit_multi_requests        38904                       # Number of requests hitting in the snoop filter with multiple (>1) holders of the requested data.
system.tol2bus.snoop_filter.hit_multi_snoops            1                       # Number of snoops hitting in the snoop filter with multiple (>1) holders of the requested data.
system.tol2bus.snoop_filter.hit_single_requests      1096315                       # Number of requests hitting in the snoop filter with a single holder of the requested data.
system.tol2bus.snoop_filter.hit_single_snoops          179                       # Number of snoops hitting in the snoop filter with a single holder of the requested data.
system.tol2bus.snoop_filter.tot_requests      2193327                       # Total number of requests made to the snoop filter.
system.tol2bus.snoop_filter.tot_snoops            180                       # Total number of snoops made to the snoop filter.
system.membus.pwrStateResidencyTicks::UNDEFINED  66553779000                       # Cumulative time (in ticks) in various power states
system.membus.trans_dist::ReadResp                678                       # Transaction distribution
system.membus.trans_dist::WritebackDirty         3368                       # Transaction distribution
system.membus.trans_dist::CleanEvict              164                       # Transaction distribution
system.membus.trans_dist::ReadExReq             19412                       # Transaction distribution
system.membus.trans_dist::ReadExResp            19412                       # Transaction distribution
system.membus.trans_dist::ReadSharedReq           678                       # Transaction distribution
system.membus.pkt_count_system.l2.mem_side::system.mem_ctrls.port        43712                       # Packet count per connected master and slave (bytes)
system.membus.pkt_count::total                  43712                       # Packet count per connected master and slave (bytes)
system.membus.pkt_size_system.l2.mem_side::system.mem_ctrls.port      3002624                       # Cumulative packet size per connected master and slave (bytes)
system.membus.pkt_size::total                 3002624                       # Cumulative packet size per connected master and slave (bytes)
system.membus.snoops                                0                       # Total snoops (count)
system.membus.snoopTraffic                          0                       # Total snoop traffic (bytes)
system.membus.snoop_fanout::samples             20090                       # Request fanout histogram
system.membus.snoop_fanout::mean                    0                       # Request fanout histogram
system.membus.snoop_fanout::stdev                   0                       # Request fanout histogram
system.membus.snoop_fanout::underflows              0      0.00%      0.00% # Request fanout histogram
system.membus.snoop_fanout::0                   20090    100.00%    100.00% # Request fanout histogram
system.membus.snoop_fanout::1                       0      0.00%    100.00% # Request fanout histogram
system.membus.snoop_fanout::overflows               0      0.00%    100.00% # Request fanout histogram
system.membus.snoop_fanout::min_value               0                       # Request fanout histogram
system.membus.snoop_fanout::max_value               0                       # Request fanout histogram
system.membus.snoop_fanout::total               20090                       # Request fanout histogram
system.membus.respLayer1.occupancy          188842250                       # Layer occupancy (ticks)
system.membus.respLayer1.utilization              0.3                       # Layer utilization (%)
system.membus.reqLayer0.occupancy            55909000                       # Layer occupancy (ticks)
system.membus.reqLayer0.utilization               0.1                       # Layer utilization (%)
system.tol2bus.pwrStateResidencyTicks::UNDEFINED  66553779000                       # Cumulative time (in ticks) in various power states
system.tol2bus.trans_dist::ReadResp           1077293                       # Transaction distribution
system.tol2bus.trans_dist::WritebackDirty        36641                       # Transaction distribution
system.tol2bus.trans_dist::WritebackClean      1059402                       # Transaction distribution
system.tol2bus.trans_dist::CleanEvict            3975                       # Transaction distribution
system.tol2bus.trans_dist::ReadExReq            19725                       # Transaction distribution
system.tol2bus.trans_dist::ReadExResp           19725                       # Transaction distribution
system.tol2bus.trans_dist::ReadCleanReq       1059599                       # Transaction distribution
system.tol2bus.trans_dist::ReadSharedReq        17694                       # Transaction distribution
system.tol2bus.pkt_count_system.cpu.icache.mem_side::system.l2.cpu_side      3178600                       # Packet count per connected master and slave (bytes)
system.tol2bus.pkt_count_system.cpu.dcache.mem_side::system.l2.cpu_side       111745                       # Packet count per connected master and slave (bytes)
system.tol2bus.pkt_count::total               3290345                       # Packet count per connected master and slave (bytes)
system.tol2bus.pkt_size_system.cpu.icache.mem_side::system.l2.cpu_side    271232128                       # Cumulative packet size per connected master and slave (bytes)
system.tol2bus.pkt_size_system.cpu.dcache.mem_side::system.l2.cpu_side      9048576                       # Cumulative packet size per connected master and slave (bytes)
system.tol2bus.pkt_size::total              280280704                       # Cumulative packet size per connected master and slave (bytes)
system.tol2bus.snoops                            3709                       # Total snoops (count)
system.tol2bus.snoopTraffic                    431104                       # Total snoop traffic (bytes)
system.tol2bus.snoop_fanout::samples          1100727                       # Request fanout histogram
system.tol2bus.snoop_fanout::mean            0.035514                       # Request fanout histogram
system.tol2bus.snoop_fanout::stdev           0.185079                       # Request fanout histogram
system.tol2bus.snoop_fanout::underflows             0      0.00%      0.00% # Request fanout histogram
system.tol2bus.snoop_fanout::0                1061637     96.45%     96.45% # Request fanout histogram
system.tol2bus.snoop_fanout::1                  39089      3.55%    100.00% # Request fanout histogram
system.tol2bus.snoop_fanout::2                      1      0.00%    100.00% # Request fanout histogram
system.tol2bus.snoop_fanout::overflows              0      0.00%    100.00% # Request fanout histogram
system.tol2bus.snoop_fanout::min_value              0                       # Request fanout histogram
system.tol2bus.snoop_fanout::max_value              2                       # Request fanout histogram
system.tol2bus.snoop_fanout::total            1100727                       # Request fanout histogram
system.tol2bus.reqLayer0.occupancy         3282013500                       # Layer occupancy (ticks)
system.tol2bus.reqLayer0.utilization              4.9                       # Layer utilization (%)
system.tol2bus.respLayer1.occupancy          93620354                       # Layer occupancy (ticks)
system.tol2bus.respLayer1.utilization             0.1                       # Layer utilization (%)
system.tol2bus.respLayer0.occupancy        2648997500                       # Layer occupancy (ticks)
system.tol2bus.respLayer0.utilization             4.0                       # Layer utilization (%)
system.voltage_domain.voltage                       1                       # Voltage in Volts
system.clk_domain.clock                          1000                       # Clock period in ticks
system.l2.pwrStateResidencyTicks::UNDEFINED  66553779000                       # Cumulative time (in ticks) in various power states
system.l2.demand_hits::.cpu.inst              1059265                       # number of demand (read+write) hits
system.l2.demand_hits::.cpu.data                17659                       # number of demand (read+write) hits
system.l2.demand_hits::total                  1076924                       # number of demand (read+write) hits
system.l2.overall_hits::.cpu.inst             1059265                       # number of overall hits
system.l2.overall_hits::.cpu.data               17659                       # number of overall hits
system.l2.overall_hits::total                 1076924                       # number of overall hits
system.l2.demand_misses::.cpu.inst                334                       # number of demand (read+write) misses
system.l2.demand_misses::.cpu.data              19760                       # number of demand (read+write) misses
system.l2.demand_misses::total                  20094                       # number of demand (read+write) misses
system.l2.overall_misses::.cpu.inst               334                       # number of overall misses
system.l2.overall_misses::.cpu.data             19760                       # number of overall misses
system.l2.overall_misses::total                 20094                       # number of overall misses
system.l2.demand_miss_latency::.cpu.inst     27898000                       # number of demand (read+write) miss cycles
system.l2.demand_miss_latency::.cpu.data   1744778000                       # number of demand (read+write) miss cycles
system.l2.demand_miss_latency::total       1772676000                       # number of demand (read+write) miss cycles
system.l2.overall_miss_latency::.cpu.inst     27898000                       # number of overall miss cycles
system.l2.overall_miss_latency::.cpu.data   1744778000                       # number of overall miss cycles
system.l2.overall_miss_latency::total      1772676000                       # number of overall miss cycles
system.l2.demand_accesses::.cpu.inst          1059599                       # number of demand (read+write) accesses
system.l2.demand_accesses::.cpu.data            37419                       # number of demand (read+write) accesses
system.l2.demand_accesses::total              1097018                       # number of demand (read+write) accesses
system.l2.overall_accesses::.cpu.inst         1059599                       # number of overall (read+write) accesses
system.l2.overall_accesses::.cpu.data           37419                       # number of overall (read+write) accesses
system.l2.overall_accesses::total             1097018                       # number of overall (read+write) accesses
system.l2.demand_miss_rate::.cpu.inst        0.000315                       # miss rate for demand accesses
system.l2.demand_miss_rate::.cpu.data        0.528074                       # miss rate for demand accesses
system.l2.demand_miss_rate::total            0.018317                       # miss rate for demand accesses
system.l2.overall_miss_rate::.cpu.inst       0.000315                       # miss rate for overall accesses
system.l2.overall_miss_rate::.cpu.data       0.528074                       # miss rate for overall accesses
system.l2.overall_miss_rate::total           0.018317                       # miss rate for overall accesses
system.l2.demand_avg_miss_latency::.cpu.inst 83526.946108                       # average overall miss latency
system.l2.demand_avg_miss_latency::.cpu.data 88298.481781                       # average overall miss latency
system.l2.demand_avg_miss_latency::total 88219.169901                       # average overall miss latency
system.l2.overall_avg_miss_latency::.cpu.inst 83526.946108                       # average overall miss latency
system.l2.overall_avg_miss_latency::.cpu.data 88298.481781                       # average overall miss latency
system.l2.overall_avg_miss_latency::total 88219.169901                       # average overall miss latency
system.l2.blocked_cycles::no_mshrs                  0                       # number of cycles access was blocked
system.l2.blocked_cycles::no_targets                0                       # number of cycles access was blocked
system.l2.blocked::no_mshrs                         0                       # number of cycles access was blocked
system.l2.blocked::no_targets                       0                       # number of cycles access was blocked
system.l2.avg_blocked_cycles::no_mshrs            nan                       # average number of cycles each access was blocked
system.l2.avg_blocked_cycles::no_targets          nan                       # average number of cycles each access was blocked
system.l2.writebacks::.writebacks                3368                       # number of writebacks
system.l2.writebacks::total                      3368                       # number of writebacks
system.l2.demand_mshr_hits::.cpu.data               4                       # number of demand (read+write) MSHR hits
system.l2.demand_mshr_hits::total                   4                       # number of demand (read+write) MSHR hits
system.l2.overall_mshr_hits::.cpu.data              4                       # number of overall MSHR hits
system.l2.overall_mshr_hits::total                  4                       # number of overall MSHR hits
system.l2.demand_mshr_misses::.cpu.inst           334                       # number of demand (read+write) MSHR misses
system.l2.demand_mshr_misses::.cpu.data         19756                       # number of demand (read+write) MSHR misses
system.l2.demand_mshr_misses::total             20090                       # number of demand (read+write) MSHR misses
system.l2.overall_mshr_misses::.cpu.inst          334                       # number of overall MSHR misses
system.l2.overall_mshr_misses::.cpu.data        19756                       # number of overall MSHR misses
system.l2.overall_mshr_misses::total            20090                       # number of overall MSHR misses
system.l2.demand_mshr_miss_latency::.cpu.inst     24558000                       # number of demand (read+write) MSHR miss cycles
system.l2.demand_mshr_miss_latency::.cpu.data   1546939500                       # number of demand (read+write) MSHR miss cycles
system.l2.demand_mshr_miss_latency::total   1571497500                       # number of demand (read+write) MSHR miss cycles
system.l2.overall_mshr_miss_latency::.cpu.inst     24558000                       # number of overall MSHR miss cycles
system.l2.overall_mshr_miss_latency::.cpu.data   1546939500                       # number of overall MSHR miss cycles
system.l2.overall_mshr_miss_latency::total   1571497500                       # number of overall MSHR miss cycles
system.l2.demand_mshr_miss_rate::.cpu.inst     0.000315                       # mshr miss rate for demand accesses
system.l2.demand_mshr_miss_rate::.cpu.data     0.527967                       # mshr miss rate for demand accesses
system.l2.demand_mshr_miss_rate::total       0.018313                       # mshr miss rate for demand accesses
system.l2.overall_mshr_miss_rate::.cpu.inst     0.000315                       # mshr miss rate for overall accesses
system.l2.overall_mshr_miss_rate::.cpu.data     0.527967                       # mshr miss rate for overall accesses
system.l2.overall_mshr_miss_rate::total      0.018313                       # mshr miss rate for overall accesses
system.l2.demand_avg_mshr_miss_latency::.cpu.inst 73526.946108                       # average overall mshr miss latency
system.l2.demand_avg_mshr_miss_latency::.cpu.data 78302.262604                       # average overall mshr miss latency
system.l2.demand_avg_mshr_miss_latency::total 78222.872076                       # average overall mshr miss latency
system.l2.overall_avg_mshr_miss_latency::.cpu.inst 73526.946108                       # average overall mshr miss latency
system.l2.overall_avg_mshr_miss_latency::.cpu.data 78302.262604                       # average overall mshr miss latency
system.l2.overall_avg_mshr_miss_latency::total 78222.872076                       # average overall mshr miss latency
system.l2.replacements                           3709                       # number of replacements
system.l2.WritebackDirty_hits::.writebacks        33273                       # number of WritebackDirty hits
system.l2.WritebackDirty_hits::total            33273                       # number of WritebackDirty hits
system.l2.WritebackDirty_accesses::.writebacks        33273                       # number of WritebackDirty accesses(hits+misses)
system.l2.WritebackDirty_accesses::total        33273                       # number of WritebackDirty accesses(hits+misses)
system.l2.WritebackClean_hits::.writebacks      1020548                       # number of WritebackClean hits
system.l2.WritebackClean_hits::total          1020548                       # number of WritebackClean hits
system.l2.WritebackClean_accesses::.writebacks      1020548                       # number of WritebackClean accesses(hits+misses)
system.l2.WritebackClean_accesses::total      1020548                       # number of WritebackClean accesses(hits+misses)
system.l2.CleanEvict_mshr_misses::.writebacks            3                       # number of CleanEvict MSHR misses
system.l2.CleanEvict_mshr_misses::total             3                       # number of CleanEvict MSHR misses
system.l2.CleanEvict_mshr_miss_rate::.writebacks          inf                       # mshr miss rate for CleanEvict accesses
system.l2.CleanEvict_mshr_miss_rate::total          inf                       # mshr miss rate for CleanEvict accesses
system.l2.ReadExReq_hits::.cpu.data               313                       # number of ReadExReq hits
system.l2.ReadExReq_hits::total                   313                       # number of ReadExReq hits
system.l2.ReadExReq_misses::.cpu.data           19412                       # number of ReadExReq misses
system.l2.ReadExReq_misses::total               19412                       # number of ReadExReq misses
system.l2.ReadExReq_miss_latency::.cpu.data   1712290500                       # number of ReadExReq miss cycles
system.l2.ReadExReq_miss_latency::total    1712290500                       # number of ReadExReq miss cycles
system.l2.ReadExReq_accesses::.cpu.data         19725                       # number of ReadExReq accesses(hits+misses)
system.l2.ReadExReq_accesses::total             19725                       # number of ReadExReq accesses(hits+misses)
system.l2.ReadExReq_miss_rate::.cpu.data     0.984132                       # miss rate for ReadExReq accesses
system.l2.ReadExReq_miss_rate::total         0.984132                       # miss rate for ReadExReq accesses
system.l2.ReadExReq_avg_miss_latency::.cpu.data 88207.835360                       # average ReadExReq miss latency
system.l2.ReadExReq_avg_miss_latency::total 88207.835360                       # average ReadExReq miss latency
system.l2.ReadExReq_mshr_misses::.cpu.data        19412                       # number of ReadExReq MSHR misses
system.l2.ReadExReq_mshr_misses::total          19412                       # number of ReadExReq MSHR misses
system.l2.ReadExReq_mshr_miss_latency::.cpu.data   1518170500                       # number of ReadExReq MSHR miss cycles
system.l2.ReadExReq_mshr_miss_latency::total   1518170500                       # number of ReadExReq MSHR miss cycles
system.l2.ReadExReq_mshr_miss_rate::.cpu.data     0.984132                       # mshr miss rate for ReadExReq accesses
system.l2.ReadExReq_mshr_miss_rate::total     0.984132                       # mshr miss rate for ReadExReq accesses
system.l2.ReadExReq_avg_mshr_miss_latency::.cpu.data 78207.835360                       # average ReadExReq mshr miss latency
system.l2.ReadExReq_avg_mshr_miss_latency::total 78207.835360                       # average ReadExReq mshr miss latency
system.l2.ReadCleanReq_hits::.cpu.inst        1059265                       # number of ReadCleanReq hits
system.l2.ReadCleanReq_hits::total            1059265                       # number of ReadCleanReq hits
system.l2.ReadCleanReq_misses::.cpu.inst          334                       # number of ReadCleanReq misses
system.l2.ReadCleanReq_misses::total              334                       # number of ReadCleanReq misses
system.l2.ReadCleanReq_miss_latency::.cpu.inst     27898000                       # number of ReadCleanReq miss cycles
system.l2.ReadCleanReq_miss_latency::total     27898000                       # number of ReadCleanReq miss cycles
system.l2.ReadCleanReq_accesses::.cpu.inst      1059599                       # number of ReadCleanReq accesses(hits+misses)
system.l2.ReadCleanReq_accesses::total        1059599                       # number of ReadCleanReq accesses(hits+misses)
system.l2.ReadCleanReq_miss_rate::.cpu.inst     0.000315                       # miss rate for ReadCleanReq accesses
system.l2.ReadCleanReq_miss_rate::total      0.000315                       # miss rate for ReadCleanReq accesses
system.l2.ReadCleanReq_avg_miss_latency::.cpu.inst 83526.946108                       # average ReadCleanReq miss latency
system.l2.ReadCleanReq_avg_miss_latency::total 83526.946108                       # average ReadCleanReq miss latency
system.l2.ReadCleanReq_mshr_misses::.cpu.inst          334                       # number of ReadCleanReq MSHR misses
system.l2.ReadCleanReq_mshr_misses::total          334                       # number of ReadCleanReq MSHR misses
system.l2.ReadCleanReq_mshr_miss_latency::.cpu.inst     24558000                       # number of ReadCleanReq MSHR miss cycles
system.l2.ReadCleanReq_mshr_miss_latency::total     24558000                       # number of ReadCleanReq MSHR miss cycles
system.l2.ReadCleanReq_mshr_miss_rate::.cpu.inst     0.000315                       # mshr miss rate for ReadCleanReq accesses
system.l2.ReadCleanReq_mshr_miss_rate::total     0.000315                       # mshr miss rate for ReadCleanReq accesses
system.l2.ReadCleanReq_avg_mshr_miss_latency::.cpu.inst 73526.946108                       # average ReadCleanReq mshr miss latency
system.l2.ReadCleanReq_avg_mshr_miss_latency::total 73526.946108                       # average ReadCleanReq mshr miss latency
system.l2.ReadSharedReq_hits::.cpu.data         17346                       # number of ReadSharedReq hits
system.l2.ReadSharedReq_hits::total             17346                       # number of ReadSharedReq hits
system.l2.ReadSharedReq_misses::.cpu.data          348                       # number of ReadSharedReq misses
system.l2.ReadSharedReq_misses::total             348                       # number of ReadSharedReq misses
system.l2.ReadSharedReq_miss_latency::.cpu.data     32487500                       # number of ReadSharedReq miss cycles
system.l2.ReadSharedReq_miss_latency::total     32487500                       # number of ReadSharedReq miss cycles
system.l2.ReadSharedReq_accesses::.cpu.data        17694                       # number of ReadSharedReq accesses(hits+misses)
system.l2.ReadSharedReq_accesses::total         17694                       # number of ReadSharedReq accesses(hits+misses)
system.l2.ReadSharedReq_miss_rate::.cpu.data     0.019668                       # miss rate for ReadSharedReq accesses
system.l2.ReadSharedReq_miss_rate::total     0.019668                       # miss rate for ReadSharedReq accesses
system.l2.ReadSharedReq_avg_miss_latency::.cpu.data 93354.885057                       # average ReadSharedReq miss latency
system.l2.ReadSharedReq_avg_miss_latency::total 93354.885057                       # average ReadSharedReq miss latency
system.l2.ReadSharedReq_mshr_hits::.cpu.data            4                       # number of ReadSharedReq MSHR hits
system.l2.ReadSharedReq_mshr_hits::total            4                       # number of ReadSharedReq MSHR hits
system.l2.ReadSharedReq_mshr_misses::.cpu.data          344                       # number of ReadSharedReq MSHR misses
system.l2.ReadSharedReq_mshr_misses::total          344                       # number of ReadSharedReq MSHR misses
system.l2.ReadSharedReq_mshr_miss_latency::.cpu.data     28769000                       # number of ReadSharedReq MSHR miss cycles
system.l2.ReadSharedReq_mshr_miss_latency::total     28769000                       # number of ReadSharedReq MSHR miss cycles
system.l2.ReadSharedReq_mshr_miss_rate::.cpu.data     0.019442                       # mshr miss rate for ReadSharedReq accesses
system.l2.ReadSharedReq_mshr_miss_rate::total     0.019442                       # mshr miss rate for ReadSharedReq accesses
system.l2.ReadSharedReq_avg_mshr_miss_latency::.cpu.data 83630.813953                       # average ReadSharedReq mshr miss latency
system.l2.ReadSharedReq_avg_mshr_miss_latency::total 83630.813953                       # average ReadSharedReq mshr miss latency
system.l2.tags.pwrStateResidencyTicks::UNDEFINED  66553779000                       # Cumulative time (in ticks) in various power states
system.l2.tags.tagsinuse                 13138.369712                       # Cycle average of tags in use
system.l2.tags.total_refs                     2154416                       # Total number of references to valid blocks.
system.l2.tags.sampled_refs                     20093                       # Sample count of references to valid blocks.
system.l2.tags.avg_refs                    107.222217                       # Average number of references to valid blocks.
system.l2.tags.warmup_cycle                     82000                       # Cycle when the warmup percentage was hit.
system.l2.tags.occ_blocks::.writebacks       0.612287                       # Average occupied blocks per requestor
system.l2.tags.occ_blocks::.cpu.inst       212.283152                       # Average occupied blocks per requestor
system.l2.tags.occ_blocks::.cpu.data     12925.474273                       # Average occupied blocks per requestor
system.l2.tags.occ_percent::.writebacks      0.000037                       # Average percentage of cache occupancy
system.l2.tags.occ_percent::.cpu.inst        0.012957                       # Average percentage of cache occupancy
system.l2.tags.occ_percent::.cpu.data        0.788908                       # Average percentage of cache occupancy
system.l2.tags.occ_percent::total            0.801902                       # Average percentage of cache occupancy
system.l2.tags.occ_task_id_blocks::1024         16384                       # Occupied blocks per task id
system.l2.tags.age_task_id_blocks_1024::0            1                       # Occupied blocks per task id
system.l2.tags.age_task_id_blocks_1024::1           15                       # Occupied blocks per task id
system.l2.tags.age_task_id_blocks_1024::2          176                       # Occupied blocks per task id
system.l2.tags.age_task_id_blocks_1024::3         1640                       # Occupied blocks per task id
system.l2.tags.age_task_id_blocks_1024::4        14552                       # Occupied blocks per task id
system.l2.tags.occ_task_id_percent::1024            1                       # Percentage of cache occupancy per task id
system.l2.tags.tag_accesses                  17255477                       # Number of tag accesses
system.l2.tags.data_accesses                 17255477                       # Number of data accesses
system.cpu_voltage_domain.voltage                   1                       # Voltage in Volts
system.mem_ctrls.pwrStateResidencyTicks::UNDEFINED  66553779000                       # Cumulative time (in ticks) in various power states
system.mem_ctrls.bytes_read::.cpu.inst          42752                       # Number of bytes read from this memory
system.mem_ctrls.bytes_read::.cpu.data        2528768                       # Number of bytes read from this memory
system.mem_ctrls.bytes_read::total            2571520                       # Number of bytes read from this memory
system.mem_ctrls.bytes_inst_read::.cpu.inst        42752                       # Number of instructions bytes read from this memory
system.mem_ctrls.bytes_inst_read::total         42752                       # Number of instructions bytes read from this memory
system.mem_ctrls.bytes_written::.writebacks       431104                       # Number of bytes written to this memory
system.mem_ctrls.bytes_written::total          431104                       # Number of bytes written to this memory
system.mem_ctrls.num_reads::.cpu.inst             334                       # Number of read requests responded to by this memory
system.mem_ctrls.num_reads::.cpu.data           19756                       # Number of read requests responded to by this memory
system.mem_ctrls.num_reads::total               20090                       # Number of read requests responded to by this memory
system.mem_ctrls.num_writes::.writebacks         3368                       # Number of write requests responded to by this memory
system.mem_ctrls.num_writes::total               3368                       # Number of write requests responded to by this memory
system.mem_ctrls.bw_read::.cpu.inst            642368                       # Total read bandwidth from this memory (bytes/s)
system.mem_ctrls.bw_read::.cpu.data          37995859                       # Total read bandwidth from this memory (bytes/s)
system.mem_ctrls.bw_read::total              38638227                       # Total read bandwidth from this memory (bytes/s)
system.mem_ctrls.bw_inst_read::.cpu.inst       642368                       # Instruction read bandwidth from this memory (bytes/s)
system.mem_ctrls.bw_inst_read::total           642368                       # Instruction read bandwidth from this memory (bytes/s)
system.mem_ctrls.bw_write::.writebacks        6477528                       # Write bandwidth from this memory (bytes/s)
system.mem_ctrls.bw_write::total              6477528                       # Write bandwidth from this memory (bytes/s)
system.mem_ctrls.bw_total::.writebacks        6477528                       # Total bandwidth to/from this memory (bytes/s)
system.mem_ctrls.bw_total::.cpu.inst           642368                       # Total bandwidth to/from this memory (bytes/s)
system.mem_ctrls.bw_total::.cpu.data         37995859                       # Total bandwidth to/from this memory (bytes/s)
system.mem_ctrls.bw_total::total             45115755                       # Total bandwidth to/from this memory (bytes/s)
system.mem_ctrls.avgPriority_.writebacks::samples      6736.00                       # Average QoS priority value for accepted requests
system.mem_ctrls.avgPriority_.cpu.inst::samples       668.00                       # Average QoS priority value for accepted requests
system.mem_ctrls.avgPriority_.cpu.data::samples     39512.00                       # Average QoS priority value for accepted requests
system.mem_ctrls.priorityMinLatency      0.000000018750                       # per QoS priority minimum request to response latency (s)
system.mem_ctrls.priorityMaxLatency      0.018778433500                       # per QoS priority maximum request to response latency (s)
system.mem_ctrls.numReadWriteTurnArounds          372                       # Number of turnarounds from READ to WRITE
system.mem_ctrls.numWriteReadTurnArounds          372                       # Number of turnarounds from WRITE to READ
system.mem_ctrls.numStayReadState               80694                       # Number of times bus staying in READ state
system.mem_ctrls.numStayWriteState               6363                       # Number of times bus staying in WRITE state
system.mem_ctrls.readReqs                       20090                       # Number of read requests accepted
system.mem_ctrls.writeReqs                       3368                       # Number of write requests accepted
system.mem_ctrls.readBursts                     40180                       # Number of DRAM read bursts, including those serviced by the write queue
system.mem_ctrls.writeBursts                     6736                       # Number of DRAM write bursts, including those merged in the write queue
system.mem_ctrls.servicedByWrQ                      0                       # Number of DRAM read bursts serviced by the write queue
system.mem_ctrls.mergedWrBursts                     0                       # Number of DRAM write bursts merged with an existing one
system.mem_ctrls.neitherReadNorWriteReqs            0                       # Number of requests that are neither read nor write
system.mem_ctrls.perBankRdBursts::0              2502                       # Per bank write bursts
system.mem_ctrls.perBankRdBursts::1              2382                       # Per bank write bursts
system.mem_ctrls.perBankRdBursts::2              2366                       # Per bank write bursts
system.mem_ctrls.perBankRdBursts::3              2658                       # Per bank write bursts
system.mem_ctrls.perBankRdBursts::4              2706                       # Per bank write bursts
system.mem_ctrls.perBankRdBursts::5              2466                       # Per bank write bursts
system.mem_ctrls.perBankRdBursts::6              2442                       # Per bank write bursts
system.mem_ctrls.perBankRdBursts::7              2484                       # Per bank write bursts
system.mem_ctrls.perBankRdBursts::8              2480                       # Per bank write bursts
system.mem_ctrls.perBankRdBursts::9              2522                       # Per bank write bursts
system.mem_ctrls.perBankRdBursts::10             2510                       # Per bank write bursts
system.mem_ctrls.perBankRdBursts::11             2532                       # Per bank write bursts
system.mem_ctrls.perBankRdBursts::12             2538                       # Per bank write bursts
system.mem_ctrls.perBankRdBursts::13             2484                       # Per bank write bursts
system.mem_ctrls.perBankRdBursts::14             2592                       # Per bank write bursts
system.mem_ctrls.perBankRdBursts::15             2516                       # Per bank write bursts
system.mem_ctrls.perBankWrBursts::0               391                       # Per bank write bursts
system.mem_ctrls.perBankWrBursts::1               302                       # Per bank write bursts
system.mem_ctrls.perBankWrBursts::2               298                       # Per bank write bursts
system.mem_ctrls.perBankWrBursts::3               520                       # Per bank write bursts
system.mem_ctrls.perBankWrBursts::4               630                       # Per bank write bursts
system.mem_ctrls.perBankWrBursts::5               416                       # Per bank write bursts
system.mem_ctrls.perBankWrBursts::6               394                       # Per bank write bursts
system.mem_ctrls.perBankWrBursts::7               418                       # Per bank write bursts
system.mem_ctrls.perBankWrBursts::8               418                       # Per bank write bursts
system.mem_ctrls.perBankWrBursts::9               408                       # Per bank write bursts
system.mem_ctrls.perBankWrBursts::10              414                       # Per bank write bursts
system.mem_ctrls.perBankWrBursts::11              404                       # Per bank write bursts
system.mem_ctrls.perBankWrBursts::12              412                       # Per bank write bursts
system.mem_ctrls.perBankWrBursts::13              412                       # Per bank write bursts
system.mem_ctrls.perBankWrBursts::14              452                       # Per bank write bursts
system.mem_ctrls.perBankWrBursts::15              420                       # Per bank write bursts
system.mem_ctrls.avgRdQLen                       2.01                       # Average read queue length when enqueuing
system.mem_ctrls.avgWrQLen                      13.95                       # Average write queue length when enqueuing
system.mem_ctrls.totQLat                    635124000                       # Total ticks spent queuing
system.mem_ctrls.totBusLat                  200900000                       # Total ticks spent in databus transfers
system.mem_ctrls.totMemAccLat              1388499000                       # Total ticks spent from burst creation until serviced by the DRAM
system.mem_ctrls.avgQLat                     15806.97                       # Average queueing delay per DRAM burst
system.mem_ctrls.avgBusLat                    5000.00                       # Average bus latency per DRAM burst
system.mem_ctrls.avgMemAccLat                34556.97                       # Average memory access latency per DRAM burst
system.mem_ctrls.numRdRetry                         0                       # Number of times read queue was full causing retry
system.mem_ctrls.numWrRetry                         0                       # Number of times write queue was full causing retry
system.mem_ctrls.readRowHits                    28495                       # Number of row buffer hits during reads
system.mem_ctrls.writeRowHits                    5767                       # Number of row buffer hits during writes
system.mem_ctrls.readRowHitRate                 70.92                       # Row buffer hit rate for reads
system.mem_ctrls.writeRowHitRate                85.61                       # Row buffer hit rate for writes
system.mem_ctrls.readPktSize::0                     0                       # Read request sizes (log2)
system.mem_ctrls.readPktSize::1                     0                       # Read request sizes (log2)
system.mem_ctrls.readPktSize::2                     0                       # Read request sizes (log2)
system.mem_ctrls.readPktSize::3                     0                       # Read request sizes (log2)
system.mem_ctrls.readPktSize::4                     0                       # Read request sizes (log2)
system.mem_ctrls.readPktSize::5                     0                       # Read request sizes (log2)
system.mem_ctrls.readPktSize::6                 40180                       # Read request sizes (log2)
system.mem_ctrls.writePktSize::0                    0                       # Write request sizes (log2)
system.mem_ctrls.writePktSize::1                    0                       # Write request sizes (log2)
system.mem_ctrls.writePktSize::2                    0                       # Write request sizes (log2)
system.mem_ctrls.writePktSize::3                    0                       # Write request sizes (log2)
system.mem_ctrls.writePktSize::4                    0                       # Write request sizes (log2)
system.mem_ctrls.writePktSize::5                    0                       # Write request sizes (log2)
system.mem_ctrls.writePktSize::6                 6736                       # Write request sizes (log2)
system.mem_ctrls.rdQLenPdf::0                   19989                       # What read queue length does an incoming req see
system.mem_ctrls.rdQLenPdf::1                   19995                       # What read queue length does an incoming req see
system.mem_ctrls.rdQLenPdf::2                      98                       # What read queue length does an incoming req see
system.mem_ctrls.rdQLenPdf::3                      93                       # What read queue length does an incoming req see
system.mem_ctrls.rdQLenPdf::4                       3                       # What read queue length does an incoming req see
system.mem_ctrls.rdQLenPdf::5                       2                       # What read queue length does an incoming req see
system.mem_ctrls.rdQLenPdf::6                       0                       # What read queue length does an incoming req see
system.mem_ctrls.rdQLenPdf::7                       0                       # What read queue length does an incoming req see
system.mem_ctrls.rdQLenPdf::8                       0                       # What read queue length does an incoming req see
system.mem_ctrls.rdQLenPdf::9                       0                       # What read queue length does an incoming req see
system.mem_ctrls.rdQLenPdf::10                      0                       # What read queue length does an incoming req see
system.mem_ctrls.rdQLenPdf::11                      0                       # What read queue length does an incoming req see
system.mem_ctrls.rdQLenPdf::12                      0                       # What read queue length does an incoming req see
system.mem_ctrls.rdQLenPdf::13                      0                       # What read queue length does an incoming req see
system.mem_ctrls.rdQLenPdf::14                      0                       # What read queue length does an incoming req see
system.mem_ctrls.rdQLenPdf::15                      0                       # What read queue length does an incoming req see
system.mem_ctrls.rdQLenPdf::16                      0                       # What read queue length does an incoming req see
system.mem_ctrls.rdQLenPdf::17                      0                       # What read queue length does an incoming req see
system.mem_ctrls.rdQLenPdf::18                      0                       # What read queue length does an incoming req see
system.mem_ctrls.rdQLenPdf::19                      0                       # What read queue length does an incoming req see
system.mem_ctrls.rdQLenPdf::20                      0                       # What read queue length does an incoming req see
system.mem_ctrls.rdQLenPdf::21                      0                       # What read queue length does an incoming req see
system.mem_ctrls.rdQLenPdf::22                      0                       # What read queue length does an incoming req see
system.mem_ctrls.rdQLenPdf::23                      0                       # What read queue length does an incoming req see
system.mem_ctrls.rdQLenPdf::24                      0                       # What read queue length does an incoming req see
system.mem_ctrls.rdQLenPdf::25                      0                       # What read queue length does an incoming req see
system.mem_ctrls.rdQLenPdf::26                      0                       # What read queue length does an incoming req see
system.mem_ctrls.rdQLenPdf::27                      0                       # What read queue length does an incoming req see
system.mem_ctrls.rdQLenPdf::28                      0                       # What read queue length does an incoming req see
system.mem_ctrls.rdQLenPdf::29                      0                       # What read queue length does an incoming req see
system.mem_ctrls.rdQLenPdf::30                      0                       # What read queue length does an incoming req see
system.mem_ctrls.rdQLenPdf::31                      0                       # What read queue length does an incoming req see
system.mem_ctrls.wrQLenPdf::0                       1                       # What write queue length does an incoming req see
system.mem_ctrls.wrQLenPdf::1                       1                       # What write queue length does an incoming req see
system.mem_ctrls.wrQLenPdf::2                       1                       # What write queue length does an incoming req see
system.mem_ctrls.wrQLenPdf::3                       1                       # What write queue length does an incoming req see
system.mem_ctrls.wrQLenPdf::4                       1                       # What write queue length does an incoming req see
system.mem_ctrls.wrQLenPdf::5                       1                       # What write queue length does an incoming req see
system.mem_ctrls.wrQLenPdf::6                       1                       # What write queue length does an incoming req see
system.mem_ctrls.wrQLenPdf::7                       1                       # What write queue length does an incoming req see
system.mem_ctrls.wrQLenPdf::8                       1                       # What write queue length does an incoming req see
system.mem_ctrls.wrQLenPdf::9                       1                       # What write queue length does an incoming req see
system.mem_ctrls.wrQLenPdf::10                      1                       # What write queue length does an incoming req see
system.mem_ctrls.wrQLenPdf::11                      1                       # What write queue length does an incoming req see
system.mem_ctrls.wrQLenPdf::12                      1                       # What write queue length does an incoming req see
system.mem_ctrls.wrQLenPdf::13                      1                       # What write queue length does an incoming req see
system.mem_ctrls.wrQLenPdf::14                      1                       # What write queue length does an incoming req see
system.mem_ctrls.wrQLenPdf::15                    373                       # What write queue length does an incoming req see
system.mem_ctrls.wrQLenPdf::16                    373                       # What write queue length does an incoming req see
system.mem_ctrls.wrQLenPdf::17                    373                       # What write queue length does an incoming req see
system.mem_ctrls.wrQLenPdf::18                    373                       # What write queue length does an incoming req see
system.mem_ctrls.wrQLenPdf::19                    373                       # What write queue length does an incoming req see
system.mem_ctrls.wrQLenPdf::20                    374                       # What write queue length does an incoming req see
system.mem_ctrls.wrQLenPdf::21                    374                       # What write queue length does an incoming req see
system.mem_ctrls.wrQLenPdf::22                    373                       # What write queue length does an incoming req see
system.mem_ctrls.wrQLenPdf::23                    373                       # What write queue length does an incoming req see
system.mem_ctrls.wrQLenPdf::24                    373                       # What write queue length does an incoming req see
system.mem_ctrls.wrQLenPdf::25                    373                       # What write queue length does an incoming req see
system.mem_ctrls.wrQLenPdf::26                    376                       # What write queue length does an incoming req see
system.mem_ctrls.wrQLenPdf::27                    376                       # What write queue length does an incoming req see
system.mem_ctrls.wrQLenPdf::28                    373                       # What write queue length does an incoming req see
system.mem_ctrls.wrQLenPdf::29                    373                       # What write queue length does an incoming req see
system.mem_ctrls.wrQLenPdf::30                    373                       # What write queue length does an incoming req see
system.mem_ctrls.wrQLenPdf::31                    372                       # What write queue length does an incoming req see
system.mem_ctrls.wrQLenPdf::32                    372                       # What write queue length does an incoming req see
system.mem_ctrls.wrQLenPdf::33                      1                       # What write queue length does an incoming req see
system.mem_ctrls.wrQLenPdf::34                      0                       # What write queue length does an incoming req see
system.mem_ctrls.wrQLenPdf::35                      0                       # What write queue length does an incoming req see
system.mem_ctrls.wrQLenPdf::36                      0                       # What write queue length does an incoming req see
system.mem_ctrls.wrQLenPdf::37                      0                       # What write queue length does an incoming req see
system.mem_ctrls.wrQLenPdf::38                      0                       # What write queue length does an incoming req see
system.mem_ctrls.wrQLenPdf::39                      0                       # What write queue length does an incoming req see
system.mem_ctrls.wrQLenPdf::40                      0                       # What write queue length does an incoming req see
system.mem_ctrls.wrQLenPdf::41                      0                       # What write queue length does an incoming req see
system.mem_ctrls.wrQLenPdf::42                      0                       # What write queue length does an incoming req see
system.mem_ctrls.wrQLenPdf::43                      0                       # What write queue length does an incoming req see
system.mem_ctrls.wrQLenPdf::44                      0                       # What write queue length does an incoming req see
system.mem_ctrls.wrQLenPdf::45                      0                       # What write queue length does an incoming req see
system.mem_ctrls.wrQLenPdf::46                      0                       # What write queue length does an incoming req see
system.mem_ctrls.wrQLenPdf::47                      0                       # What write queue length does an incoming req see
system.mem_ctrls.wrQLenPdf::48                      0                       # What write queue length does an incoming req see
system.mem_ctrls.wrQLenPdf::49                      0                       # What write queue length does an incoming req see
system.mem_ctrls.wrQLenPdf::50                      0                       # What write queue length does an incoming req see
system.mem_ctrls.wrQLenPdf::51                      0                       # What write queue length does an incoming req see
system.mem_ctrls.wrQLenPdf::52                      0                       # What write queue length does an incoming req see
system.mem_ctrls.wrQLenPdf::53                      0                       # What write queue length does an incoming req see
system.mem_ctrls.wrQLenPdf::54                      0                       # What write queue length does an incoming req see
system.mem_ctrls.wrQLenPdf::55                      0                       # What write queue length does an incoming req see
system.mem_ctrls.wrQLenPdf::56                      0                       # What write queue length does an incoming req see
system.mem_ctrls.wrQLenPdf::57                      0                       # What write queue length does an incoming req see
system.mem_ctrls.wrQLenPdf::58                      0                       # What write queue length does an incoming req see
system.mem_ctrls.wrQLenPdf::59                      0                       # What write queue length does an incoming req see
system.mem_ctrls.wrQLenPdf::60                      0                       # What write queue length does an incoming req see
system.mem_ctrls.wrQLenPdf::61                      0                       # What write queue length does an incoming req see
system.mem_ctrls.wrQLenPdf::62                      0                       # What write queue length does an incoming req see
system.mem_ctrls.wrQLenPdf::63                      0                       # What write queue length does an incoming req see
system.mem_ctrls.bytesPerActivate::samples        12626                       # Bytes accessed per row activation
system.mem_ctrls.bytesPerActivate::mean    237.665769                       # Bytes accessed per row activation
system.mem_ctrls.bytesPerActivate::gmean   199.067160                       # Bytes accessed per row activation
system.mem_ctrls.bytesPerActivate::stdev   171.849783                       # Bytes accessed per row activation
system.mem_ctrls.bytesPerActivate::0-127           49      0.39%      0.39% # Bytes accessed per row activation
system.mem_ctrls.bytesPerActivate::128-255         6799     53.85%     54.24% # Bytes accessed per row activation
system.mem_ctrls.bytesPerActivate::256-383         3427     27.14%     81.38% # Bytes accessed per row activation
system.mem_ctrls.bytesPerActivate::384-511         1092      8.65%     90.03% # Bytes accessed per row activation
system.mem_ctrls.bytesPerActivate::512-639          645      5.11%     95.14% # Bytes accessed per row activation
system.mem_ctrls.bytesPerActivate::640-767          304      2.41%     97.54% # Bytes accessed per row activation
system.mem_ctrls.bytesPerActivate::768-895           51      0.40%     97.95% # Bytes accessed per row activation
system.mem_ctrls.bytesPerActivate::896-1023           69      0.55%     98.50% # Bytes accessed per row activation
system.mem_ctrls.bytesPerActivate::1024-1151          190      1.50%    100.00% # Bytes accessed per row activation
system.mem_ctrls.bytesPerActivate::total        12626                       # Bytes accessed per row activation
system.mem_ctrls.rdPerTurnAround::samples          372                       # Reads before turning the bus around for writes
system.mem_ctrls.rdPerTurnAround::mean     107.978495                       # Reads before turning the bus around for writes
system.mem_ctrls.rdPerTurnAround::gmean     20.107626                       # Reads before turning the bus around for writes
system.mem_ctrls.rdPerTurnAround::stdev   1479.660499                       # Reads before turning the bus around for writes
system.mem_ctrls.rdPerTurnAround::0-1023          369     99.19%     99.19% # Reads before turning the bus around for writes
system.mem_ctrls.rdPerTurnAround::1024-2047            2      0.54%     99.73% # Reads before turning the bus around for writes
system.mem_ctrls.rdPerTurnAround::27648-28671            1      0.27%    100.00% # Reads before turning the bus around for writes
system.mem_ctrls.rdPerTurnAround::total           372                       # Reads before turning the bus around for writes
system.mem_ctrls.wrPerTurnAround::samples          372                       # Writes before turning the bus around for reads
[...]
system.cpu.icache.ReadReq_mshr_miss_latency::.cpu.inst  13046044000                       # number of ReadReq MSHR miss cycles
system.cpu.icache.ReadReq_mshr_miss_latency::total  13046044000                       # number of ReadReq MSHR miss cycles
system.cpu.icache.ReadReq_mshr_miss_rate::.cpu.inst     0.039459                       # mshr miss rate for ReadReq accesses
system.cpu.icache.ReadReq_mshr_miss_rate::total     0.039459                       # mshr miss rate for ReadReq accesses
system.cpu.icache.ReadReq_avg_mshr_miss_latency::.cpu.inst 12312.246425                       # average ReadReq mshr miss latency
system.cpu.icache.ReadReq_avg_mshr_miss_latency::total 12312.246425                       # average ReadReq mshr miss latency
system.cpu.icache.tags.pwrStateResidencyTicks::UNDEFINED  66553779000                       # Cumulative time (in ticks) in various power states
system.cpu.icache.tags.tagsinuse           196.947919                       # Cycle average of tags in use
system.cpu.icache.tags.total_refs            26853347                       # Total number of references to valid blocks.
system.cpu.icache.tags.sampled_refs           1059599                       # Sample count of references to valid blocks.
system.cpu.icache.tags.avg_refs             25.342934                       # Average number of references to valid blocks.
system.cpu.icache.tags.warmup_cycle             92500                       # Cycle when the warmup percentage was hit.
system.cpu.icache.tags.occ_blocks::.cpu.inst   196.947919                       # Average occupied blocks per requestor
system.cpu.icache.tags.occ_percent::.cpu.inst     0.769328                       # Average percentage of cache occupancy
system.cpu.icache.tags.occ_percent::total     0.769328                       # Average percentage of cache occupancy
system.cpu.icache.tags.occ_task_id_blocks::1024          197                       # Occupied blocks per task id
system.cpu.icache.tags.age_task_id_blocks_1024::0           12                       # Occupied blocks per task id
system.cpu.icache.tags.age_task_id_blocks_1024::2            8                       # Occupied blocks per task id
system.cpu.icache.tags.age_task_id_blocks_1024::3            1                       # Occupied blocks per task id
system.cpu.icache.tags.age_task_id_blocks_1024::4          176                       # Occupied blocks per task id
system.cpu.icache.tags.occ_task_id_percent::1024     0.769531                       # Percentage of cache occupancy per task id
system.cpu.icache.tags.tag_accesses          27912946                       # Number of tag accesses
system.cpu.icache.tags.data_accesses         27912946                       # Number of data accesses
system.cpu.dtb.walker.pwrStateResidencyTicks::UNDEFINED  66553779000                       # Cumulative time (in ticks) in various power states
system.cpu.dtb.stage2_mmu.stage2_tlb.walker.pwrStateResidencyTicks::UNDEFINED  66553779000                       # Cumulative time (in ticks) in various power states
system.cpu.dcache.pwrStateResidencyTicks::UNDEFINED  66553779000                       # Cumulative time (in ticks) in various power states
system.cpu.dcache.demand_hits::.cpu.data     34788365                       # number of demand (read+write) hits
system.cpu.dcache.demand_hits::total         34788365                       # number of demand (read+write) hits
system.cpu.dcache.overall_hits::.cpu.data     34791694                       # number of overall hits
system.cpu.dcache.overall_hits::total        34791694                       # number of overall hits
system.cpu.dcache.demand_misses::.cpu.data        48199                       # number of demand (read+write) misses
system.cpu.dcache.demand_misses::total          48199                       # number of demand (read+write) misses
system.cpu.dcache.overall_misses::.cpu.data        48231                       # number of overall misses
system.cpu.dcache.overall_misses::total         48231                       # number of overall misses
system.cpu.dcache.demand_miss_latency::.cpu.data   2667004000                       # number of demand (read+write) miss cycles
system.cpu.dcache.demand_miss_latency::total   2667004000                       # number of demand (read+write) miss cycles
system.cpu.dcache.overall_miss_latency::.cpu.data   2667004000                       # number of overall miss cycles
system.cpu.dcache.overall_miss_latency::total   2667004000                       # number of overall miss cycles
system.cpu.dcache.demand_accesses::.cpu.data     34836564                       # number of demand (read+write) accesses
system.cpu.dcache.demand_accesses::total     34836564                       # number of demand (read+write) accesses
system.cpu.dcache.overall_accesses::.cpu.data     34839925                       # number of overall (read+write) accesses
system.cpu.dcache.overall_accesses::total     34839925                       # number of overall (read+write) accesses
system.cpu.dcache.demand_miss_rate::.cpu.data     0.001384                       # miss rate for demand accesses
system.cpu.dcache.demand_miss_rate::total     0.001384                       # miss rate for demand accesses
system.cpu.dcache.overall_miss_rate::.cpu.data     0.001384                       # miss rate for overall accesses
system.cpu.dcache.overall_miss_rate::total     0.001384                       # miss rate for overall accesses
system.cpu.dcache.demand_avg_miss_latency::.cpu.data 55333.181186                       # average overall miss latency
system.cpu.dcache.demand_avg_miss_latency::total 55333.181186                       # average overall miss latency
system.cpu.dcache.overall_avg_miss_latency::.cpu.data 55296.469076                       # average overall miss latency
system.cpu.dcache.overall_avg_miss_latency::total 55296.469076                       # average overall miss latency
system.cpu.dcache.blocked_cycles::no_mshrs            0                       # number of cycles access was blocked
system.cpu.dcache.blocked_cycles::no_targets            0                       # number of cycles access was blocked
system.cpu.dcache.blocked::no_mshrs                 0                       # number of cycles access was blocked
system.cpu.dcache.blocked::no_targets               0                       # number of cycles access was blocked
system.cpu.dcache.avg_blocked_cycles::no_mshrs          nan                       # average number of cycles each access was blocked
system.cpu.dcache.avg_blocked_cycles::no_targets          nan                       # average number of cycles each access was blocked
system.cpu.dcache.writebacks::.writebacks        33273                       # number of writebacks
system.cpu.dcache.writebacks::total             33273                       # number of writebacks
system.cpu.dcache.demand_mshr_hits::.cpu.data        10797                       # number of demand (read+write) MSHR hits
system.cpu.dcache.demand_mshr_hits::total        10797                       # number of demand (read+write) MSHR hits
system.cpu.dcache.overall_mshr_hits::.cpu.data        10797                       # number of overall MSHR hits
system.cpu.dcache.overall_mshr_hits::total        10797                       # number of overall MSHR hits
system.cpu.dcache.demand_mshr_misses::.cpu.data        37402                       # number of demand (read+write) MSHR misses
system.cpu.dcache.demand_mshr_misses::total        37402                       # number of demand (read+write) MSHR misses
system.cpu.dcache.overall_mshr_misses::.cpu.data        37419                       # number of overall MSHR misses
system.cpu.dcache.overall_mshr_misses::total        37419                       # number of overall MSHR misses
system.cpu.dcache.demand_mshr_miss_latency::.cpu.data   1985685000                       # number of demand (read+write) MSHR miss cycles
system.cpu.dcache.demand_mshr_miss_latency::total   1985685000                       # number of demand (read+write) MSHR miss cycles
system.cpu.dcache.overall_mshr_miss_latency::.cpu.data   1986457000                       # number of overall MSHR miss cycles
system.cpu.dcache.overall_mshr_miss_latency::total   1986457000                       # number of overall MSHR miss cycles
system.cpu.dcache.demand_mshr_miss_rate::.cpu.data     0.001074                       # mshr miss rate for demand accesses
system.cpu.dcache.demand_mshr_miss_rate::total     0.001074                       # mshr miss rate for demand accesses
system.cpu.dcache.overall_mshr_miss_rate::.cpu.data     0.001074                       # mshr miss rate for overall accesses
system.cpu.dcache.overall_mshr_miss_rate::total     0.001074                       # mshr miss rate for overall accesses
system.cpu.dcache.demand_avg_mshr_miss_latency::.cpu.data 53090.342762                       # average overall mshr miss latency
system.cpu.dcache.demand_avg_mshr_miss_latency::total 53090.342762                       # average overall mshr miss latency
system.cpu.dcache.overall_avg_mshr_miss_latency::.cpu.data 53086.854272                       # average overall mshr miss latency
system.cpu.dcache.overall_avg_mshr_miss_latency::total 53086.854272                       # average overall mshr miss latency
system.cpu.dcache.replacements                  36907                       # number of replacements
system.cpu.dcache.ReadReq_hits::.cpu.data     20606480                       # number of ReadReq hits
system.cpu.dcache.ReadReq_hits::total        20606480                       # number of ReadReq hits
system.cpu.dcache.ReadReq_misses::.cpu.data        19907                       # number of ReadReq misses
system.cpu.dcache.ReadReq_misses::total         19907                       # number of ReadReq misses
system.cpu.dcache.ReadReq_miss_latency::.cpu.data    297240500                       # number of ReadReq miss cycles
system.cpu.dcache.ReadReq_miss_latency::total    297240500                       # number of ReadReq miss cycles
system.cpu.dcache.ReadReq_accesses::.cpu.data     20626387                       # number of ReadReq accesses(hits+misses)
system.cpu.dcache.ReadReq_accesses::total     20626387                       # number of ReadReq accesses(hits+misses)
system.cpu.dcache.ReadReq_miss_rate::.cpu.data     0.000965                       # miss rate for ReadReq accesses
system.cpu.dcache.ReadReq_miss_rate::total     0.000965                       # miss rate for ReadReq accesses
system.cpu.dcache.ReadReq_avg_miss_latency::.cpu.data 14931.456272                       # average ReadReq miss latency
system.cpu.dcache.ReadReq_avg_miss_latency::total 14931.456272                       # average ReadReq miss latency
system.cpu.dcache.ReadReq_mshr_hits::.cpu.data         2230                       # number of ReadReq MSHR hits
system.cpu.dcache.ReadReq_mshr_hits::total         2230                       # number of ReadReq MSHR hits
system.cpu.dcache.ReadReq_mshr_misses::.cpu.data        17677                       # number of ReadReq MSHR misses
system.cpu.dcache.ReadReq_mshr_misses::total        17677                       # number of ReadReq MSHR misses
system.cpu.dcache.ReadReq_mshr_miss_latency::.cpu.data    240446000                       # number of ReadReq MSHR miss cycles
system.cpu.dcache.ReadReq_mshr_miss_latency::total    240446000                       # number of ReadReq MSHR miss cycles
system.cpu.dcache.ReadReq_mshr_miss_rate::.cpu.data     0.000857                       # mshr miss rate for ReadReq accesses
system.cpu.dcache.ReadReq_mshr_miss_rate::total     0.000857                       # mshr miss rate for ReadReq accesses
system.cpu.dcache.ReadReq_avg_mshr_miss_latency::.cpu.data 13602.194943                       # average ReadReq mshr miss latency
system.cpu.dcache.ReadReq_avg_mshr_miss_latency::total 13602.194943                       # average ReadReq mshr miss latency
system.cpu.dcache.WriteReq_hits::.cpu.data     14181885                       # number of WriteReq hits
system.cpu.dcache.WriteReq_hits::total       14181885                       # number of WriteReq hits
system.cpu.dcache.WriteReq_misses::.cpu.data        28292                       # number of WriteReq misses
system.cpu.dcache.WriteReq_misses::total        28292                       # number of WriteReq misses
system.cpu.dcache.WriteReq_miss_latency::.cpu.data   2369763500                       # number of WriteReq miss cycles
system.cpu.dcache.WriteReq_miss_latency::total   2369763500                       # number of WriteReq miss cycles
system.cpu.dcache.WriteReq_accesses::.cpu.data     14210177                       # number of WriteReq accesses(hits+misses)
system.cpu.dcache.WriteReq_accesses::total     14210177                       # number of WriteReq accesses(hits+misses)
system.cpu.dcache.WriteReq_miss_rate::.cpu.data     0.001991                       # miss rate for WriteReq accesses
system.cpu.dcache.WriteReq_miss_rate::total     0.001991                       # miss rate for WriteReq accesses
system.cpu.dcache.WriteReq_avg_miss_latency::.cpu.data 83760.904143                       # average WriteReq miss latency
system.cpu.dcache.WriteReq_avg_miss_latency::total 83760.904143                       # average WriteReq miss latency
system.cpu.dcache.WriteReq_mshr_hits::.cpu.data         8567                       # number of WriteReq MSHR hits
system.cpu.dcache.WriteReq_mshr_hits::total         8567                       # number of WriteReq MSHR hits
system.cpu.dcache.WriteReq_mshr_misses::.cpu.data        19725                       # number of WriteReq MSHR misses
system.cpu.dcache.WriteReq_mshr_misses::total        19725                       # number of WriteReq MSHR misses
system.cpu.dcache.WriteReq_mshr_miss_latency::.cpu.data   1745239000                       # number of WriteReq MSHR miss cycles
system.cpu.dcache.WriteReq_mshr_miss_latency::total   1745239000                       # number of WriteReq MSHR miss cycles
system.cpu.dcache.WriteReq_mshr_miss_rate::.cpu.data     0.001388                       # mshr miss rate for WriteReq accesses
system.cpu.dcache.WriteReq_mshr_miss_rate::total     0.001388                       # mshr miss rate for WriteReq accesses
system.cpu.dcache.WriteReq_avg_mshr_miss_latency::.cpu.data 88478.529785                       # average WriteReq mshr miss latency
system.cpu.dcache.WriteReq_avg_mshr_miss_latency::total 88478.529785                       # average WriteReq mshr miss latency
system.cpu.dcache.SoftPFReq_hits::.cpu.data         3329                       # number of SoftPFReq hits
system.cpu.dcache.SoftPFReq_hits::total          3329                       # number of SoftPFReq hits
system.cpu.dcache.SoftPFReq_misses::.cpu.data           32                       # number of SoftPFReq misses
system.cpu.dcache.SoftPFReq_misses::total           32                       # number of SoftPFReq misses
system.cpu.dcache.SoftPFReq_accesses::.cpu.data         3361                       # number of SoftPFReq accesses(hits+misses)
system.cpu.dcache.SoftPFReq_accesses::total         3361                       # number of SoftPFReq accesses(hits+misses)
system.cpu.dcache.SoftPFReq_miss_rate::.cpu.data     0.009521                       # miss rate for SoftPFReq accesses
system.cpu.dcache.SoftPFReq_miss_rate::total     0.009521                       # miss rate for SoftPFReq accesses
system.cpu.dcache.SoftPFReq_mshr_misses::.cpu.data           17                       # number of SoftPFReq MSHR misses
system.cpu.dcache.SoftPFReq_mshr_misses::total           17                       # number of SoftPFReq MSHR misses
system.cpu.dcache.SoftPFReq_mshr_miss_latency::.cpu.data       772000                       # number of SoftPFReq MSHR miss cycles
system.cpu.dcache.SoftPFReq_mshr_miss_latency::total       772000                       # number of SoftPFReq MSHR miss cycles
system.cpu.dcache.SoftPFReq_mshr_miss_rate::.cpu.data     0.005058                       # mshr miss rate for SoftPFReq accesses
system.cpu.dcache.SoftPFReq_mshr_miss_rate::total     0.005058                       # mshr miss rate for SoftPFReq accesses
system.cpu.dcache.SoftPFReq_avg_mshr_miss_latency::.cpu.data 45411.764706                       # average SoftPFReq mshr miss latency
system.cpu.dcache.SoftPFReq_avg_mshr_miss_latency::total 45411.764706                       # average SoftPFReq mshr miss latency
system.cpu.dcache.LoadLockedReq_hits::.cpu.data        89082                       # number of LoadLockedReq hits
system.cpu.dcache.LoadLockedReq_hits::total        89082                       # number of LoadLockedReq hits
system.cpu.dcache.LoadLockedReq_accesses::.cpu.data        89082                       # number of LoadLockedReq accesses(hits+misses)
system.cpu.dcache.LoadLockedReq_accesses::total        89082                       # number of LoadLockedReq accesses(hits+misses)
system.cpu.dcache.StoreCondReq_hits::.cpu.data        89082                       # number of StoreCondReq hits
system.cpu.dcache.StoreCondReq_hits::total        89082                       # number of StoreCondReq hits
system.cpu.dcache.StoreCondReq_accesses::.cpu.data        89082                       # number of StoreCondReq accesses(hits+misses)
system.cpu.dcache.StoreCondReq_accesses::total        89082                       # number of StoreCondReq accesses(hits+misses)
system.cpu.dcache.tags.pwrStateResidencyTicks::UNDEFINED  66553779000                       # Cumulative time (in ticks) in various power states
system.cpu.dcache.tags.tagsinuse           510.568416                       # Cycle average of tags in use
system.cpu.dcache.tags.total_refs            35007277                       # Total number of references to valid blocks.
system.cpu.dcache.tags.sampled_refs             37419                       # Sample count of references to valid blocks.
system.cpu.dcache.tags.avg_refs            935.548171                       # Average number of references to valid blocks.
system.cpu.dcache.tags.warmup_cycle            210500                       # Cycle when the warmup percentage was hit.
system.cpu.dcache.tags.occ_blocks::.cpu.data   510.568416                       # Average occupied blocks per requestor
system.cpu.dcache.tags.occ_percent::.cpu.data     0.997204                       # Average percentage of cache occupancy
system.cpu.dcache.tags.occ_percent::total     0.997204                       # Average percentage of cache occupancy
system.cpu.dcache.tags.occ_task_id_blocks::1024          512                       # Occupied blocks per task id
system.cpu.dcache.tags.age_task_id_blocks_1024::0            3                       # Occupied blocks per task id
system.cpu.dcache.tags.age_task_id_blocks_1024::1           34                       # Occupied blocks per task id
system.cpu.dcache.tags.age_task_id_blocks_1024::2          275                       # Occupied blocks per task id
system.cpu.dcache.tags.age_task_id_blocks_1024::3          179                       # Occupied blocks per task id
system.cpu.dcache.tags.age_task_id_blocks_1024::4           21                       # Occupied blocks per task id
system.cpu.dcache.tags.occ_task_id_percent::1024            1                       # Percentage of cache occupancy per task id
system.cpu.dcache.tags.tag_accesses          70073597                       # Number of tag accesses
system.cpu.dcache.tags.data_accesses         70073597                       # Number of data accesses
system.cpu.itb.walker.pwrStateResidencyTicks::UNDEFINED  66553779000                       # Cumulative time (in ticks) in various power states
system.cpu.itb.stage2_mmu.stage2_tlb.walker.pwrStateResidencyTicks::UNDEFINED  66553779000                       # Cumulative time (in ticks) in various power states

---------- End Simulation Statistics   ----------
