
---------- Begin Simulation Statistics ----------
final_tick                                84043163500                       # Number of ticks from beginning of simulation (restored from checkpoints and never reset)
host_inst_rate                                 245224                       # Simulator instruction rate (inst/s)
host_mem_usage                                 691640                       # Number of bytes of host memory used
host_op_rate                                   245706                       # Simulator op (including micro ops) rate (op/s)
host_seconds                                   407.79                       # Real time elapsed on the host
host_tick_rate                              206094032                       # Simulator tick rate (ticks/s)
sim_freq                                 1000000000000                       # Frequency of simulated ticks
sim_insts                                   100000001                       # Number of instructions simulated
sim_ops                                     100196363                       # Number of ops (including micro ops) simulated
sim_seconds                                  0.084043                       # Number of seconds simulated
sim_ticks                                 84043163500                       # Number of ticks simulated
system.cpu.branchPred.BTBCorrect                    0                       # Number of correct BTB predictions (this stat may not work properly.
system.cpu.branchPred.BTBHitPct             99.694597                       # BTB Hit Percentage
system.cpu.branchPred.BTBHits                 2095393                       # Number of BTB hits
system.cpu.branchPred.BTBLookups              2101812                       # Number of BTB lookups
system.cpu.branchPred.RASInCorrect                  5                       # Number of incorrect RAS predictions.
system.cpu.branchPred.condIncorrect             81341                       # Number of conditional branches incorrect
system.cpu.branchPred.condPredicted           3727667                       # Number of conditional branches predicted
system.cpu.branchPred.indirectHits                291                       # Number of indirect target hits.
system.cpu.branchPred.indirectLookups             808                       # Number of indirect predictor lookups.
system.cpu.branchPred.indirectMisses              517                       # Number of indirect misses.
system.cpu.branchPred.lookups                 4477741                       # Number of BP lookups
system.cpu.branchPred.usedRAS                   65338                       # Number of times the RAS was used to get a target.
system.cpu.branchPredindirectMispredicted          171                       # Number of mispredicted indirect branches.
system.cpu.committedInsts                   100000001                       # Number of instructions committed
system.cpu.committedOps                     100196363                       # Number of ops (including micro ops) committed
system.cpu.cpi                               1.680863                       # CPI: cycles per instruction
system.cpu.discardedOps                        190644                       # Number of ops (including micro ops) which were discarded before commit
system.cpu.dtb.accesses                             0                       # DTB accesses
system.cpu.dtb.align_faults                         0                       # Number of TLB faults due to alignment restrictions
system.cpu.dtb.domain_faults                        0                       # Number of TLB faults due to domain restrictions
system.cpu.dtb.flush_entries                        0                       # Number of entries that have been flushed from TLB
system.cpu.dtb.flush_tlb                            0                       # Number of times complete TLB was flushed
system.cpu.dtb.flush_tlb_asid                       0                       # Number of times TLB was flushed by ASID
system.cpu.dtb.flush_tlb_mva                        0                       # Number of times TLB was flushed by MVA
system.cpu.dtb.flush_tlb_mva_asid                   0                       # Number of times TLB was flushed by MVA & ASID
system.cpu.dtb.hits                                 0                       # DTB hits
system.cpu.dtb.inst_accesses                        0                       # ITB inst accesses
system.cpu.dtb.inst_hits                            0                       # ITB inst hits
system.cpu.dtb.inst_misses                          0                       # ITB inst misses
system.cpu.dtb.misses                               0                       # DTB misses
system.cpu.dtb.perms_faults                         0                       # Number of TLB faults due to permissions restrictions
system.cpu.dtb.prefetch_faults                      0                       # Number of TLB faults due to prefetch
system.cpu.dtb.read_accesses                        0                       # DTB read accesses
system.cpu.dtb.read_hits                            0                       # DTB read hits
system.cpu.dtb.read_misses                          0                       # DTB read misses
system.cpu.dtb.stage2_mmu.stage2_tlb.accesses            0                       # DTB accesses
system.cpu.dtb.stage2_mmu.stage2_tlb.align_faults            0                       # Number of TLB faults due to alignment restrictions
system.cpu.dtb.stage2_mmu.stage2_tlb.domain_faults            0                       # Number of TLB faults due to domain restrictions
system.cpu.dtb.stage2_mmu.stage2_tlb.flush_entries            0                       # Number of entries that have been flushed from TLB
system.cpu.dtb.stage2_mmu.stage2_tlb.flush_tlb            0                       # Number of times complete TLB was flushed
system.cpu.dtb.stage2_mmu.stage2_tlb.flush_tlb_asid            0                       # Number of times TLB was flushed by ASID
system.cpu.dtb.stage2_mmu.stage2_tlb.flush_tlb_mva            0                       # Number of times TLB was flushed by MVA
system.cpu.dtb.stage2_mmu.stage2_tlb.flush_tlb_mva_asid            0                       # Number of times TLB was flushed by MVA & ASID
system.cpu.dtb.stage2_mmu.stage2_tlb.hits            0                       # DTB hits
system.cpu.dtb.stage2_mmu.stage2_tlb.inst_accesses            0                       # ITB inst accesses
system.cpu.dtb.stage2_mmu.stage2_tlb.inst_hits            0                       # ITB inst hits
system.cpu.dtb.stage2_mmu.stage2_tlb.inst_misses            0                       # ITB inst misses
system.cpu.dtb.stage2_mmu.stage2_tlb.misses            0                       # DTB misses
system.cpu.dtb.stage2_mmu.stage2_tlb.perms_faults            0                       # Number of TLB faults due to permissions restrictions
system.cpu.dtb.stage2_mmu.stage2_tlb.prefetch_faults            0                       # Number of TLB faults due to prefetch
system.cpu.dtb.stage2_mmu.stage2_tlb.read_accesses            0                       # DTB read accesses
system.cpu.dtb.stage2_mmu.stage2_tlb.read_hits            0                       # DTB read hits
system.cpu.dtb.stage2_mmu.stage2_tlb.read_misses            0                       # DTB read misses
system.cpu.dtb.stage2_mmu.stage2_tlb.walker.walkRequestOrigin_Requested::Data            0                       # Table walker requests started/completed, data/inst
system.cpu.dtb.stage2_mmu.stage2_tlb.walker.walkRequestOrigin_Requested::Inst            0                       # Table walker requests started/completed, data/inst
system.cpu.dtb.stage2_mmu.stage2_tlb.walker.walkRequestOrigin_Requested::total            0                       # Table walker requests started/completed, data/inst
system.cpu.dtb.stage2_mmu.stage2_tlb.walker.walkRequestOrigin_Completed::Data            0                       # Table walker requests started/completed, data/inst
system.cpu.dtb.stage2_mmu.stage2_tlb.walker.walkRequestOrigin_Completed::Inst            0                       # Table walker requests started/completed, data/inst
system.cpu.dtb.stage2_mmu.stage2_tlb.walker.walkRequestOrigin_Completed::total            0                       # Table walker requests started/completed, data/inst
system.cpu.dtb.stage2_mmu.stage2_tlb.walker.walkRequestOrigin::total            0                       # Table walker requests started/completed, data/inst
system.cpu.dtb.stage2_mmu.stage2_tlb.walker.walks            0                       # Table walker walks requested
system.cpu.dtb.stage2_mmu.stage2_tlb.write_accesses            0                       # DTB write accesses
system.cpu.dtb.stage2_mmu.stage2_tlb.write_hits            0                       # DTB write hits
system.cpu.dtb.stage2_mmu.stage2_tlb.write_misses            0                       # DTB write misses
system.cpu.dtb.walker.walkRequestOrigin_Requested::Data            0                       # Table walker requests started/completed, data/inst
system.cpu.dtb.walker.walkRequestOrigin_Requested::Inst            0                       # Table walker requests started/completed, data/inst
system.cpu.dtb.walker.walkRequestOrigin_Requested::total            0                       # Table walker requests started/completed, data/inst
system.cpu.dtb.walker.walkRequestOrigin_Completed::Data            0                       # Table walker requests started/completed, data/inst
system.cpu.dtb.walker.walkRequestOrigin_Completed::Inst            0                       # Table walker requests started/completed, data/inst
system.cpu.dtb.walker.walkRequestOrigin_Completed::total            0                       # Table walker requests started/completed, data/inst
system.cpu.dtb.walker.walkRequestOrigin::total            0                       # Table walker requests started/completed, data/inst
system.cpu.dtb.walker.walks                         0                       # Table walker walks requested
system.cpu.dtb.write_accesses                       0                       # DTB write accesses
system.cpu.dtb.write_hits                           0                       # DTB write hits
system.cpu.dtb.write_misses                         0                       # DTB write misses
system.cpu.fetch2.amo_instructions                  0                       # Number of memory atomic instructions successfully decoded
system.cpu.fetch2.fp_instructions                   0                       # Number of floating point instructions successfully decoded
system.cpu.fetch2.int_instructions           42610068                       # Number of integer instructions successfully decoded
system.cpu.fetch2.load_instructions          43402290                       # Number of memory load instructions successfully decoded
system.cpu.fetch2.store_instructions         11001397                       # Number of memory store instructions successfully decoded
system.cpu.fetch2.vec_instructions                  0                       # Number of SIMD instructions successfully decoded
system.cpu.idleCycles                        35384122                       # Total number of cycles that the object has spent stopped
system.cpu.ipc                               0.594932                       # IPC: instructions per cycle
system.cpu.itb.accesses                             0                       # DTB accesses
system.cpu.itb.align_faults                         0                       # Number of TLB faults due to alignment restrictions
system.cpu.itb.domain_faults                        0                       # Number of TLB faults due to domain restrictions
system.cpu.itb.flush_entries                        0                       # Number of entries that have been flushed from TLB
system.cpu.itb.flush_tlb                            0                       # Number of times complete TLB was flushed
system.cpu.itb.flush_tlb_asid                       0                       # Number of times TLB was flushed by ASID
system.cpu.itb.flush_tlb_mva                        0                       # Number of times TLB was flushed by MVA
system.cpu.itb.flush_tlb_mva_asid                   0                       # Number of times TLB was flushed by MVA & ASID
system.cpu.itb.hits                                 0                       # DTB hits
system.cpu.itb.inst_accesses                        0                       # ITB inst accesses
system.cpu.itb.inst_hits                            0                       # ITB inst hits
system.cpu.itb.inst_misses                          0                       # ITB inst misses
system.cpu.itb.misses                               0                       # DTB misses
system.cpu.itb.perms_faults                         0                       # Number of TLB faults due to permissions restrictions
system.cpu.itb.prefetch_faults                      0                       # Number of TLB faults due to prefetch
system.cpu.itb.read_accesses                        0                       # DTB read accesses
system.cpu.itb.read_hits                            0                       # DTB read hits
system.cpu.itb.read_misses                          0                       # DTB read misses
system.cpu.itb.stage2_mmu.stage2_tlb.accesses            0                       # DTB accesses
system.cpu.itb.stage2_mmu.stage2_tlb.align_faults            0                       # Number of TLB faults due to alignment restrictions
system.cpu.itb.stage2_mmu.stage2_tlb.domain_faults            0                       # Number of TLB faults due to domain restrictions
system.cpu.itb.stage2_mmu.stage2_tlb.flush_entries            0                       # Number of entries that have been flushed from TLB
system.cpu.itb.stage2_mmu.stage2_tlb.flush_tlb            0                       # Number of times complete TLB was flushed
system.cpu.itb.stage2_mmu.stage2_tlb.flush_tlb_asid            0                       # Number of times TLB was flushed by ASID
system.cpu.itb.stage2_mmu.stage2_tlb.flush_tlb_mva            0                       # Number of times TLB was flushed by MVA
system.cpu.itb.stage2_mmu.stage2_tlb.flush_tlb_mva_asid            0                       # Number of times TLB was flushed by MVA & ASID
system.cpu.itb.stage2_mmu.stage2_tlb.hits            0                       # DTB hits
system.cpu.itb.stage2_mmu.stage2_tlb.inst_accesses            0                       # ITB inst accesses
system.cpu.itb.stage2_mmu.stage2_tlb.inst_hits            0                       # ITB inst hits
system.cpu.itb.stage2_mmu.stage2_tlb.inst_misses            0                       # ITB inst misses
system.cpu.itb.stage2_mmu.stage2_tlb.misses            0                       # DTB misses
system.cpu.itb.stage2_mmu.stage2_tlb.perms_faults            0                       # Number of TLB faults due to permissions restrictions
system.cpu.itb.stage2_mmu.stage2_tlb.prefetch_faults            0                       # Number of TLB faults due to prefetch
system.cpu.itb.stage2_mmu.stage2_tlb.read_accesses            0                       # DTB read accesses
system.cpu.itb.stage2_mmu.stage2_tlb.read_hits            0                       # DTB read hits
system.cpu.itb.stage2_mmu.stage2_tlb.read_misses            0                       # DTB read misses
system.cpu.itb.stage2_mmu.stage2_tlb.walker.walkRequestOrigin_Requested::Data            0                       # Table walker requests started/completed, data/inst
system.cpu.itb.stage2_mmu.stage2_tlb.walker.walkRequestOrigin_Requested::Inst            0                       # Table walker requests started/completed, data/inst
system.cpu.itb.stage2_mmu.stage2_tlb.walker.walkRequestOrigin_Requested::total            0                       # Table walker requests started/completed, data/inst
system.cpu.itb.stage2_mmu.stage2_tlb.walker.walkRequestOrigin_Completed::Data            0                       # Table walker requests started/completed, data/inst
system.cpu.itb.stage2_mmu.stage2_tlb.walker.walkRequestOrigin_Completed::Inst            0                       # Table walker requests started/completed, data/inst
system.cpu.itb.stage2_mmu.stage2_tlb.walker.walkRequestOrigin_Completed::total            0                       # Table walker requests started/completed, data/inst
system.cpu.itb.stage2_mmu.stage2_tlb.walker.walkRequestOrigin::total            0                       # Table walker requests started/completed, data/inst
system.cpu.itb.stage2_mmu.stage2_tlb.walker.walks            0                       # Table walker walks requested
system.cpu.itb.stage2_mmu.stage2_tlb.write_accesses            0                       # DTB write accesses
system.cpu.itb.stage2_mmu.stage2_tlb.write_hits            0                       # DTB write hits
system.cpu.itb.stage2_mmu.stage2_tlb.write_misses            0                       # DTB write misses
system.cpu.itb.walker.walkRequestOrigin_Requested::Data            0                       # Table walker requests started/completed, data/inst
system.cpu.itb.walker.walkRequestOrigin_Requested::Inst            0                       # Table walker requests started/completed, data/inst
system.cpu.itb.walker.walkRequestOrigin_Requested::total            0                       # Table walker requests started/completed, data/inst
system.cpu.itb.walker.walkRequestOrigin_Completed::Data            0                       # Table walker requests started/completed, data/inst
system.cpu.itb.walker.walkRequestOrigin_Completed::Inst            0                       # Table walker requests started/completed, data/inst
system.cpu.itb.walker.walkRequestOrigin_Completed::total            0                       # Table walker requests started/completed, data/inst
system.cpu.itb.walker.walkRequestOrigin::total            0                       # Table walker requests started/completed, data/inst
system.cpu.itb.walker.walks                         0                       # Table walker walks requested
system.cpu.itb.write_accesses                       0                       # DTB write accesses
system.cpu.itb.write_hits                           0                       # DTB write hits
system.cpu.itb.write_misses                         0                       # DTB write misses
system.cpu.numCycles                        168086327                       # number of cpu cycles simulated
system.cpu.numFetchSuspends                         0                       # Number of times Execute suspended instruction fetching
system.cpu.numWorkItemsCompleted                    0                       # number of work items this cpu completed
system.cpu.numWorkItemsStarted                      0                       # number of work items this cpu started
system.cpu.op_class_0::No_OpClass                   0      0.00%      0.00% # Class of committed instruction
system.cpu.op_class_0::IntAlu                46531400     46.44%     46.44% # Class of committed instruction
system.cpu.op_class_0::IntMult                  20720      0.02%     46.46% # Class of committed instruction
system.cpu.op_class_0::IntDiv                       0      0.00%     46.46% # Class of committed instruction
system.cpu.op_class_0::FloatAdd                     0      0.00%     46.46% # Class of committed instruction
system.cpu.op_class_0::FloatCmp                     0      0.00%     46.46% # Class of committed instruction
system.cpu.op_class_0::FloatCvt                     0      0.00%     46.46% # Class of committed instruction
system.cpu.op_class_0::FloatMult                    0      0.00%     46.46% # Class of committed instruction
system.cpu.op_class_0::FloatMultAcc                 0      0.00%     46.46% # Class of committed instruction
system.cpu.op_class_0::FloatDiv                     0      0.00%     46.46% # Class of committed instruction
system.cpu.op_class_0::FloatMisc                    0      0.00%     46.46% # Class of committed instruction
system.cpu.op_class_0::FloatSqrt                    0      0.00%     46.46% # Class of committed instruction
system.cpu.op_class_0::SimdAdd                      0      0.00%     46.46% # Class of committed instruction
system.cpu.op_class_0::SimdAddAcc                   0      0.00%     46.46% # Class of committed instruction
system.cpu.op_class_0::SimdAlu                      0      0.00%     46.46% # Class of committed instruction
system.cpu.op_class_0::SimdCmp                      0      0.00%     46.46% # Class of committed instruction
system.cpu.op_class_0::SimdCvt                      0      0.00%     46.46% # Class of committed instruction
system.cpu.op_class_0::SimdMisc                     0      0.00%     46.46% # Class of committed instruction
system.cpu.op_class_0::SimdMult                     0      0.00%     46.46% # Class of committed instruction
system.cpu.op_class_0::SimdMultAcc                  0      0.00%     46.46% # Class of committed instruction
system.cpu.op_class_0::SimdShift                    0      0.00%     46.46% # Class of committed instruction
system.cpu.op_class_0::SimdShiftAcc                 0      0.00%     46.46% # Class of committed instruction
system.cpu.op_class_0::SimdDiv                      0      0.00%     46.46% # Class of committed instruction
system.cpu.op_class_0::SimdSqrt                     0      0.00%     46.46% # Class of committed instruction
system.cpu.op_class_0::SimdFloatAdd                 0      0.00%     46.46% # Class of committed instruction
system.cpu.op_class_0::SimdFloatAlu                 0      0.00%     46.46% # Class of committed instruction
system.cpu.op_class_0::SimdFloatCmp                 0      0.00%     46.46% # Class of committed instruction
system.cpu.op_class_0::SimdFloatCvt                 0      0.00%     46.46% # Class of committed instruction
system.cpu.op_class_0::SimdFloatDiv                 0      0.00%     46.46% # Class of committed instruction
system.cpu.op_class_0::SimdFloatMisc               18      0.00%     46.46% # Class of committed instruction
system.cpu.op_class_0::SimdFloatMult                0      0.00%     46.46% # Class of committed instruction
system.cpu.op_class_0::SimdFloatMultAcc             0      0.00%     46.46% # Class of committed instruction
system.cpu.op_class_0::SimdFloatSqrt                0      0.00%     46.46% # Class of committed instruction
system.cpu.op_class_0::SimdReduceAdd                0      0.00%     46.46% # Class of committed instruction
system.cpu.op_class_0::SimdReduceAlu                0      0.00%     46.46% # Class of committed instruction
system.cpu.op_class_0::SimdReduceCmp                0      0.00%     46.46% # Class of committed instruction
system.cpu.op_class_0::SimdFloatReduceAdd            0      0.00%     46.46% # Class of committed instruction
system.cpu.op_class_0::SimdFloatReduceCmp            0      0.00%     46.46% # Class of committed instruction
system.cpu.op_class_0::SimdAes                      0      0.00%     46.46% # Class of committed instruction
system.cpu.op_class_0::SimdAesMix                   0      0.00%     46.46% # Class of committed instruction
system.cpu.op_class_0::SimdSha1Hash                 0      0.00%     46.46% # Class of committed instruction
system.cpu.op_class_0::SimdSha1Hash2                0      0.00%     46.46% # Class of committed instruction
system.cpu.op_class_0::SimdSha256Hash               0      0.00%     46.46% # Class of committed instruction
system.cpu.op_class_0::SimdSha256Hash2              0      0.00%     46.46% # Class of committed instruction
system.cpu.op_class_0::SimdShaSigma2                0      0.00%     46.46% # Class of committed instruction
system.cpu.op_class_0::SimdShaSigma3                0      0.00%     46.46% # Class of committed instruction
system.cpu.op_class_0::SimdPredAlu                  0      0.00%     46.46% # Class of committed instruction
system.cpu.op_class_0::MemRead               42693601     42.61%     89.07% # Class of committed instruction
system.cpu.op_class_0::MemWrite              10950624     10.93%    100.00% # Class of committed instruction
system.cpu.op_class_0::FloatMemRead                 0      0.00%    100.00% # Class of committed instruction
system.cpu.op_class_0::FloatMemWrite                0      0.00%    100.00% # Class of committed instruction
system.cpu.op_class_0::IprAccess                    0      0.00%    100.00% # Class of committed instruction
system.cpu.op_class_0::InstPrefetch                 0      0.00%    100.00% # Class of committed instruction
system.cpu.op_class_0::total                100196363                       # Class of committed instruction
system.cpu.tickCycles                       132702205                       # Number of cycles that the object actually ticked
system.cpu.workload.numSyscalls                    84                       # Number of system calls
system.membus.snoop_filter.hit_multi_requests            0                       # Number of requests hitting in the snoop filter with multiple (>1) holders of the requested data.
system.membus.snoop_filter.hit_multi_snoops            0                       # Number of snoops hitting in the snoop filter with multiple (>1) holders of the requested data.
system.membus.snoop_filter.hit_single_requests       168704                       # Number of requests hitting in the snoop filter with a single holder of the requested data.
system.membus.snoop_filter.hit_single_snoops            0                       # Number of snoops hitting in the snoop filter with a single holder of the requested data.
system.membus.snoop_filter.tot_requests        370507                       # Total number of requests made to the snoop filter.
system.membus.snoop_filter.tot_snoops               0                       # Total number of snoops made to the snoop filter.
system.tol2bus.snoop_filter.hit_multi_requests          120                       # Number of requests hitting in the snoop filter with multiple (>1) holders of the requested data.
system.tol2bus.snoop_filter.hit_multi_snoops            0                       # Number of snoops hitting in the snoop filter with multiple (>1) holders of the requested data.
system.tol2bus.snoop_filter.hit_single_requests       710875                       # Number of requests hitting in the snoop filter with a single holder of the requested data.
system.tol2bus.snoop_filter.hit_single_snoops          468                       # Number of snoops hitting in the snoop filter with a single holder of the requested data.
system.tol2bus.snoop_filter.tot_requests      1423216                       # Total number of requests made to the snoop filter.
system.tol2bus.snoop_filter.tot_snoops            468                       # Total number of snoops made to the snoop filter.
system.membus.pwrStateResidencyTicks::UNDEFINED  84043163500                       # Cumulative time (in ticks) in various power states
system.membus.trans_dist::ReadResp              65840                       # Transaction distribution
system.membus.trans_dist::WritebackDirty       110974                       # Transaction distribution
system.membus.trans_dist::CleanEvict            57723                       # Transaction distribution
system.membus.trans_dist::ReadExReq            135970                       # Transaction distribution
system.membus.trans_dist::ReadExResp           135969                       # Transaction distribution
system.membus.trans_dist::ReadSharedReq         65840                       # Transaction distribution
system.membus.pkt_count_system.l2.mem_side::system.mem_ctrls.port       572316                       # Packet count per connected master and slave (bytes)
system.membus.pkt_count::total                 572316                       # Packet count per connected master and slave (bytes)
system.membus.pkt_size_system.l2.mem_side::system.mem_ctrls.port     20018112                       # Cumulative packet size per connected master and slave (bytes)
system.membus.pkt_size::total                20018112                       # Cumulative packet size per connected master and slave (bytes)
system.membus.snoops                                0                       # Total snoops (count)
system.membus.snoopTraffic                          0                       # Total snoop traffic (bytes)
system.membus.snoop_fanout::samples            201810                       # Request fanout histogram
system.membus.snoop_fanout::mean                    0                       # Request fanout histogram
system.membus.snoop_fanout::stdev                   0                       # Request fanout histogram
system.membus.snoop_fanout::underflows              0      0.00%      0.00% # Request fanout histogram
system.membus.snoop_fanout::0                  201810    100.00%    100.00% # Request fanout histogram
system.membus.snoop_fanout::1                       0      0.00%    100.00% # Request fanout histogram
system.membus.snoop_fanout::overflows               0      0.00%    100.00% # Request fanout histogram
system.membus.snoop_fanout::min_value               0                       # Request fanout histogram
system.membus.snoop_fanout::max_value               0                       # Request fanout histogram
system.membus.snoop_fanout::total              201810                       # Request fanout histogram
system.membus.respLayer1.occupancy         1087194250                       # Layer occupancy (ticks)
system.membus.respLayer1.utilization              1.3                       # Layer utilization (%)
system.membus.reqLayer0.occupancy           856147500                       # Layer occupancy (ticks)
system.membus.reqLayer0.utilization               1.0                       # Layer utilization (%)
system.tol2bus.pwrStateResidencyTicks::UNDEFINED  84043163500                       # Cumulative time (in ticks) in various power states
system.tol2bus.trans_dist::ReadResp            425999                       # Transaction distribution
system.tol2bus.trans_dist::WritebackDirty       744927                       # Transaction distribution
system.tol2bus.trans_dist::WritebackClean          302                       # Transaction distribution
system.tol2bus.trans_dist::CleanEvict          134809                       # Transaction distribution
system.tol2bus.trans_dist::ReadExReq           286344                       # Transaction distribution
system.tol2bus.trans_dist::ReadExResp          286343                       # Transaction distribution
system.tol2bus.trans_dist::ReadCleanReq           747                       # Transaction distribution
system.tol2bus.trans_dist::ReadSharedReq       425252                       # Transaction distribution
system.tol2bus.pkt_count_system.cpu.icache.mem_side::system.l2.cpu_side         1796                       # Packet count per connected master and slave (bytes)
system.tol2bus.pkt_count_system.cpu.dcache.mem_side::system.l2.cpu_side      2133762                       # Packet count per connected master and slave (bytes)
system.tol2bus.pkt_count::total               2135558                       # Packet count per connected master and slave (bytes)
system.tol2bus.pkt_size_system.cpu.icache.mem_side::system.l2.cpu_side        67136                       # Cumulative packet size per connected master and slave (bytes)
system.tol2bus.pkt_size_system.cpu.dcache.mem_side::system.l2.cpu_side     86115072                       # Cumulative packet size per connected master and slave (bytes)
system.tol2bus.pkt_size::total               86182208                       # Cumulative packet size per connected master and slave (bytes)
system.tol2bus.snoops                          169165                       # Total snoops (count)
system.tol2bus.snoopTraffic                   7102336                       # Total snoop traffic (bytes)
system.tol2bus.snoop_fanout::samples           881508                       # Request fanout histogram
system.tol2bus.snoop_fanout::mean            0.000669                       # Request fanout histogram
system.tol2bus.snoop_fanout::stdev           0.025862                       # Request fanout histogram
system.tol2bus.snoop_fanout::underflows             0      0.00%      0.00% # Request fanout histogram
system.tol2bus.snoop_fanout::0                 880918     99.93%     99.93% # Request fanout histogram
system.tol2bus.snoop_fanout::1                    590      0.07%    100.00% # Request fanout histogram
system.tol2bus.snoop_fanout::2                      0      0.00%    100.00% # Request fanout histogram
system.tol2bus.snoop_fanout::overflows              0      0.00%    100.00% # Request fanout histogram
system.tol2bus.snoop_fanout::min_value              0                       # Request fanout histogram
system.tol2bus.snoop_fanout::max_value              1                       # Request fanout histogram
system.tol2bus.snoop_fanout::total             881508                       # Request fanout histogram
system.tol2bus.reqLayer0.occupancy         1345863000                       # Layer occupancy (ticks)
system.tol2bus.reqLayer0.utilization              1.6                       # Layer utilization (%)
system.tol2bus.respLayer1.occupancy        1067394496                       # Layer occupancy (ticks)
system.tol2bus.respLayer1.utilization             1.3                       # Layer utilization (%)
system.tol2bus.respLayer0.occupancy           1120500                       # Layer occupancy (ticks)
system.tol2bus.respLayer0.utilization             0.0                       # Layer utilization (%)
system.voltage_domain.voltage                       1                       # Voltage in Volts
system.clk_domain.clock                          1000                       # Clock period in ticks
system.l2.pwrStateResidencyTicks::UNDEFINED  84043163500                       # Cumulative time (in ticks) in various power states
system.l2.demand_hits::.cpu.inst                   79                       # number of demand (read+write) hits
system.l2.demand_hits::.cpu.data               510450                       # number of demand (read+write) hits
system.l2.demand_hits::total                   510529                       # number of demand (read+write) hits
system.l2.overall_hits::.cpu.inst                  79                       # number of overall hits
system.l2.overall_hits::.cpu.data              510450                       # number of overall hits
system.l2.overall_hits::total                  510529                       # number of overall hits
system.l2.demand_misses::.cpu.inst                668                       # number of demand (read+write) misses
system.l2.demand_misses::.cpu.data             201146                       # number of demand (read+write) misses
system.l2.demand_misses::total                 201814                       # number of demand (read+write) misses
system.l2.overall_misses::.cpu.inst               668                       # number of overall misses
system.l2.overall_misses::.cpu.data            201146                       # number of overall misses
system.l2.overall_misses::total                201814                       # number of overall misses
system.l2.demand_miss_latency::.cpu.inst     52645000                       # number of demand (read+write) miss cycles
system.l2.demand_miss_latency::.cpu.data  16974939500                       # number of demand (read+write) miss cycles
system.l2.demand_miss_latency::total      17027584500                       # number of demand (read+write) miss cycles
system.l2.overall_miss_latency::.cpu.inst     52645000                       # number of overall miss cycles
system.l2.overall_miss_latency::.cpu.data  16974939500                       # number of overall miss cycles
system.l2.overall_miss_latency::total     17027584500                       # number of overall miss cycles
system.l2.demand_accesses::.cpu.inst              747                       # number of demand (read+write) accesses
system.l2.demand_accesses::.cpu.data           711596                       # number of demand (read+write) accesses
system.l2.demand_accesses::total               712343                       # number of demand (read+write) accesses
system.l2.overall_accesses::.cpu.inst             747                       # number of overall (read+write) accesses
system.l2.overall_accesses::.cpu.data          711596                       # number of overall (read+write) accesses
system.l2.overall_accesses::total              712343                       # number of overall (read+write) accesses
system.l2.demand_miss_rate::.cpu.inst        0.894244                       # miss rate for demand accesses
system.l2.demand_miss_rate::.cpu.data        0.282669                       # miss rate for demand accesses
system.l2.demand_miss_rate::total            0.283310                       # miss rate for demand accesses
system.l2.overall_miss_rate::.cpu.inst       0.894244                       # miss rate for overall accesses
system.l2.overall_miss_rate::.cpu.data       0.282669                       # miss rate for overall accesses
system.l2.overall_miss_rate::total           0.283310                       # miss rate for overall accesses
system.l2.demand_avg_miss_latency::.cpu.inst 78809.880240                       # average overall miss latency
system.l2.demand_avg_miss_latency::.cpu.data 84391.136289                       # average overall miss latency
system.l2.demand_avg_miss_latency::total 84372.662452                       # average overall miss latency
system.l2.overall_avg_miss_latency::.cpu.inst 78809.880240                       # average overall miss latency
system.l2.overall_avg_miss_latency::.cpu.data 84391.136289                       # average overall miss latency
system.l2.overall_avg_miss_latency::total 84372.662452                       # average overall miss latency
system.l2.blocked_cycles::no_mshrs                  0                       # number of cycles access was blocked
system.l2.blocked_cycles::no_targets                0                       # number of cycles access was blocked
system.l2.blocked::no_mshrs                         0                       # number of cycles access was blocked
system.l2.blocked::no_targets                       0                       # number of cycles access was blocked
system.l2.avg_blocked_cycles::no_mshrs            nan                       # average number of cycles each access was blocked
system.l2.avg_blocked_cycles::no_targets          nan                       # average number of cycles each access was blocked
system.l2.writebacks::.writebacks              110974                       # number of writebacks
system.l2.writebacks::total                    110974                       # number of writebacks
system.l2.demand_mshr_hits::.cpu.data               4                       # number of demand (read+write) MSHR hits
system.l2.demand_mshr_hits::total                   4                       # number of demand (read+write) MSHR hits
system.l2.overall_mshr_hits::.cpu.data              4                       # number of overall MSHR hits
system.l2.overall_mshr_hits::total                  4                       # number of overall MSHR hits
system.l2.demand_mshr_misses::.cpu.inst           668                       # number of demand (read+write) MSHR misses
system.l2.demand_mshr_misses::.cpu.data        201142                       # number of demand (read+write) MSHR misses
system.l2.demand_mshr_misses::total            201810                       # number of demand (read+write) MSHR misses
system.l2.overall_mshr_misses::.cpu.inst          668                       # number of overall MSHR misses
system.l2.overall_mshr_misses::.cpu.data       201142                       # number of overall MSHR misses
system.l2.overall_mshr_misses::total           201810                       # number of overall MSHR misses
system.l2.demand_mshr_miss_latency::.cpu.inst     45965000                       # number of demand (read+write) MSHR miss cycles
system.l2.demand_mshr_miss_latency::.cpu.data  14963285500                       # number of demand (read+write) MSHR miss cycles
system.l2.demand_mshr_miss_latency::total  15009250500                       # number of demand (read+write) MSHR miss cycles
system.l2.overall_mshr_miss_latency::.cpu.inst     45965000                       # number of overall MSHR miss cycles
system.l2.overall_mshr_miss_latency::.cpu.data  14963285500                       # number of overall MSHR miss cycles
system.l2.overall_mshr_miss_latency::total  15009250500                       # number of overall MSHR miss cycles
system.l2.demand_mshr_miss_rate::.cpu.inst     0.894244                       # mshr miss rate for demand accesses
system.l2.demand_mshr_miss_rate::.cpu.data     0.282663                       # mshr miss rate for demand accesses
system.l2.demand_mshr_miss_rate::total       0.283305                       # mshr miss rate for demand accesses
system.l2.overall_mshr_miss_rate::.cpu.inst     0.894244                       # mshr miss rate for overall accesses
system.l2.overall_mshr_miss_rate::.cpu.data     0.282663                       # mshr miss rate for overall accesses
system.l2.overall_mshr_miss_rate::total      0.283305                       # mshr miss rate for overall accesses
system.l2.demand_avg_mshr_miss_latency::.cpu.inst 68809.880240                       # average overall mshr miss latency
system.l2.demand_avg_mshr_miss_latency::.cpu.data 74391.651172                       # average overall mshr miss latency
system.l2.demand_avg_mshr_miss_latency::total 74373.175264                       # average overall mshr miss latency
system.l2.overall_avg_mshr_miss_latency::.cpu.inst 68809.880240                       # average overall mshr miss latency
system.l2.overall_avg_mshr_miss_latency::.cpu.data 74391.651172                       # average overall mshr miss latency
system.l2.overall_avg_mshr_miss_latency::total 74373.175264                       # average overall mshr miss latency
system.l2.replacements                         169165                       # number of replacements
system.l2.WritebackDirty_hits::.writebacks       633953                       # number of WritebackDirty hits
system.l2.WritebackDirty_hits::total           633953                       # number of WritebackDirty hits
system.l2.WritebackDirty_accesses::.writebacks       633953                       # number of WritebackDirty accesses(hits+misses)
system.l2.WritebackDirty_accesses::total       633953                       # number of WritebackDirty accesses(hits+misses)
system.l2.WritebackClean_hits::.writebacks          293                       # number of WritebackClean hits
system.l2.WritebackClean_hits::total              293                       # number of WritebackClean hits
system.l2.WritebackClean_accesses::.writebacks          293                       # number of WritebackClean accesses(hits+misses)
system.l2.WritebackClean_accesses::total          293                       # number of WritebackClean accesses(hits+misses)
system.l2.ReadExReq_hits::.cpu.data            150374                       # number of ReadExReq hits
system.l2.ReadExReq_hits::total                150374                       # number of ReadExReq hits
system.l2.ReadExReq_misses::.cpu.data          135970                       # number of ReadExReq misses
system.l2.ReadExReq_misses::total              135970                       # number of ReadExReq misses
system.l2.ReadExReq_miss_latency::.cpu.data  11801436500                       # number of ReadExReq miss cycles
system.l2.ReadExReq_miss_latency::total   11801436500                       # number of ReadExReq miss cycles
system.l2.ReadExReq_accesses::.cpu.data        286344                       # number of ReadExReq accesses(hits+misses)
system.l2.ReadExReq_accesses::total            286344                       # number of ReadExReq accesses(hits+misses)
system.l2.ReadExReq_miss_rate::.cpu.data     0.474848                       # miss rate for ReadExReq accesses
system.l2.ReadExReq_miss_rate::total         0.474848                       # miss rate for ReadExReq accesses
system.l2.ReadExReq_avg_miss_latency::.cpu.data 86794.414209                       # average ReadExReq miss latency
system.l2.ReadExReq_avg_miss_latency::total 86794.414209                       # average ReadExReq miss latency
system.l2.ReadExReq_mshr_misses::.cpu.data       135970                       # number of ReadExReq MSHR misses
system.l2.ReadExReq_mshr_misses::total         135970                       # number of ReadExReq MSHR misses
system.l2.ReadExReq_mshr_miss_latency::.cpu.data  10441746500                       # number of ReadExReq MSHR miss cycles
system.l2.ReadExReq_mshr_miss_latency::total  10441746500                       # number of ReadExReq MSHR miss cycles
system.l2.ReadExReq_mshr_miss_rate::.cpu.data     0.474848                       # mshr miss rate for ReadExReq accesses
system.l2.ReadExReq_mshr_miss_rate::total     0.474848                       # mshr miss rate for ReadExReq accesses
system.l2.ReadExReq_avg_mshr_miss_latency::.cpu.data 76794.487755                       # average ReadExReq mshr miss latency
system.l2.ReadExReq_avg_mshr_miss_latency::total 76794.487755                       # average ReadExReq mshr miss latency
system.l2.ReadCleanReq_hits::.cpu.inst             79                       # number of ReadCleanReq hits
system.l2.ReadCleanReq_hits::total                 79                       # number of ReadCleanReq hits
system.l2.ReadCleanReq_misses::.cpu.inst          668                       # number of ReadCleanReq misses
system.l2.ReadCleanReq_misses::total              668                       # number of ReadCleanReq misses
system.l2.ReadCleanReq_miss_latency::.cpu.inst     52645000                       # number of ReadCleanReq miss cycles
system.l2.ReadCleanReq_miss_latency::total     52645000                       # number of ReadCleanReq miss cycles
system.l2.ReadCleanReq_accesses::.cpu.inst          747                       # number of ReadCleanReq accesses(hits+misses)
system.l2.ReadCleanReq_accesses::total            747                       # number of ReadCleanReq accesses(hits+misses)
system.l2.ReadCleanReq_miss_rate::.cpu.inst     0.894244                       # miss rate for ReadCleanReq accesses
system.l2.ReadCleanReq_miss_rate::total      0.894244                       # miss rate for ReadCleanReq accesses
system.l2.ReadCleanReq_avg_miss_latency::.cpu.inst 78809.880240                       # average ReadCleanReq miss latency
system.l2.ReadCleanReq_avg_miss_latency::total 78809.880240                       # average ReadCleanReq miss latency
system.l2.ReadCleanReq_mshr_misses::.cpu.inst          668                       # number of ReadCleanReq MSHR misses
system.l2.ReadCleanReq_mshr_misses::total          668                       # number of ReadCleanReq MSHR misses
system.l2.ReadCleanReq_mshr_miss_latency::.cpu.inst     45965000                       # number of ReadCleanReq MSHR miss cycles
system.l2.ReadCleanReq_mshr_miss_latency::total     45965000                       # number of ReadCleanReq MSHR miss cycles
system.l2.ReadCleanReq_mshr_miss_rate::.cpu.inst     0.894244                       # mshr miss rate for ReadCleanReq accesses
system.l2.ReadCleanReq_mshr_miss_rate::total     0.894244                       # mshr miss rate for ReadCleanReq accesses
system.l2.ReadCleanReq_avg_mshr_miss_latency::.cpu.inst 68809.880240                       # average ReadCleanReq mshr miss latency
system.l2.ReadCleanReq_avg_mshr_miss_latency::total 68809.880240                       # average ReadCleanReq mshr miss latency
system.l2.ReadSharedReq_hits::.cpu.data        360076                       # number of ReadSharedReq hits
system.l2.ReadSharedReq_hits::total            360076                       # number of ReadSharedReq hits
system.l2.ReadSharedReq_misses::.cpu.data        65176                       # number of ReadSharedReq misses
system.l2.ReadSharedReq_misses::total           65176                       # number of ReadSharedReq misses
system.l2.ReadSharedReq_miss_latency::.cpu.data   5173503000                       # number of ReadSharedReq miss cycles
system.l2.ReadSharedReq_miss_latency::total   5173503000                       # number of ReadSharedReq miss cycles
system.l2.ReadSharedReq_accesses::.cpu.data       425252                       # number of ReadSharedReq accesses(hits+misses)
system.l2.ReadSharedReq_accesses::total        425252                       # number of ReadSharedReq accesses(hits+misses)
system.l2.ReadSharedReq_miss_rate::.cpu.data     0.153264                       # miss rate for ReadSharedReq accesses
system.l2.ReadSharedReq_miss_rate::total     0.153264                       # miss rate for ReadSharedReq accesses
system.l2.ReadSharedReq_avg_miss_latency::.cpu.data 79377.424205                       # average ReadSharedReq miss latency
system.l2.ReadSharedReq_avg_miss_latency::total 79377.424205                       # average ReadSharedReq miss latency
system.l2.ReadSharedReq_mshr_hits::.cpu.data            4                       # number of ReadSharedReq MSHR hits
system.l2.ReadSharedReq_mshr_hits::total            4                       # number of ReadSharedReq MSHR hits
system.l2.ReadSharedReq_mshr_misses::.cpu.data        65172                       # number of ReadSharedReq MSHR misses
system.l2.ReadSharedReq_mshr_misses::total        65172                       # number of ReadSharedReq MSHR misses
system.l2.ReadSharedReq_mshr_miss_latency::.cpu.data   4521539000                       # number of ReadSharedReq MSHR miss cycles
system.l2.ReadSharedReq_mshr_miss_latency::total   4521539000                       # number of ReadSharedReq MSHR miss cycles
system.l2.ReadSharedReq_mshr_miss_rate::.cpu.data     0.153255                       # mshr miss rate for ReadSharedReq accesses
system.l2.ReadSharedReq_mshr_miss_rate::total     0.153255                       # mshr miss rate for ReadSharedReq accesses
system.l2.ReadSharedReq_avg_mshr_miss_latency::.cpu.data 69378.552139                       # average ReadSharedReq mshr miss latency
system.l2.ReadSharedReq_avg_mshr_miss_latency::total 69378.552139                       # average ReadSharedReq mshr miss latency
system.l2.tags.pwrStateResidencyTicks::UNDEFINED  84043163500                       # Cumulative time (in ticks) in various power states
system.l2.tags.tagsinuse                 31906.884019                       # Cycle average of tags in use
system.l2.tags.total_refs                     1423091                       # Total number of references to valid blocks.
system.l2.tags.sampled_refs                    201933                       # Sample count of references to valid blocks.
system.l2.tags.avg_refs                      7.047342                       # Average number of references to valid blocks.
system.l2.tags.warmup_cycle                     77000                       # Cycle when the warmup percentage was hit.
system.l2.tags.occ_blocks::.writebacks      43.984689                       # Average occupied blocks per requestor
system.l2.tags.occ_blocks::.cpu.inst        86.279364                       # Average occupied blocks per requestor
system.l2.tags.occ_blocks::.cpu.data     31776.619966                       # Average occupied blocks per requestor
system.l2.tags.occ_percent::.writebacks      0.001342                       # Average percentage of cache occupancy
system.l2.tags.occ_percent::.cpu.inst        0.002633                       # Average percentage of cache occupancy
system.l2.tags.occ_percent::.cpu.data        0.969745                       # Average percentage of cache occupancy
system.l2.tags.occ_percent::total            0.973721                       # Average percentage of cache occupancy
system.l2.tags.occ_task_id_blocks::1024         32768                       # Occupied blocks per task id
system.l2.tags.age_task_id_blocks_1024::0           87                       # Occupied blocks per task id
system.l2.tags.age_task_id_blocks_1024::1          116                       # Occupied blocks per task id
system.l2.tags.age_task_id_blocks_1024::2         1183                       # Occupied blocks per task id
system.l2.tags.age_task_id_blocks_1024::3        16440                       # Occupied blocks per task id
system.l2.tags.age_task_id_blocks_1024::4        14942                       # Occupied blocks per task id
system.l2.tags.occ_task_id_percent::1024            1                       # Percentage of cache occupancy per task id
system.l2.tags.tag_accesses                  45741005                       # Number of tag accesses
system.l2.tags.data_accesses                 45741005                       # Number of data accesses
system.cpu_voltage_domain.voltage                   1                       # Voltage in Volts
system.mem_ctrls.pwrStateResidencyTicks::UNDEFINED  84043163500                       # Cumulative time (in ticks) in various power states
system.mem_ctrls.bytes_read::.cpu.inst          42752                       # Number of bytes read from this memory
system.mem_ctrls.bytes_read::.cpu.data       12873024                       # Number of bytes read from this memory
system.mem_ctrls.bytes_read::total           12915776                       # Number of bytes read from this memory
system.mem_ctrls.bytes_inst_read::.cpu.inst        42752                       # Number of instructions bytes read from this memory
system.mem_ctrls.bytes_inst_read::total         42752                       # Number of instructions bytes read from this memory
system.mem_ctrls.bytes_written::.writebacks      7102336                       # Number of bytes written to this memory
system.mem_ctrls.bytes_written::total         7102336                       # Number of bytes written to this memory
system.mem_ctrls.num_reads::.cpu.inst             668                       # Number of read requests responded to by this memory
system.mem_ctrls.num_reads::.cpu.data          201141                       # Number of read requests responded to by this memory
system.mem_ctrls.num_reads::total              201809                       # Number of read requests responded to by this memory
system.mem_ctrls.num_writes::.writebacks       110974                       # Number of write requests responded to by this memory
system.mem_ctrls.num_writes::total             110974                       # Number of write requests responded to by this memory
system.mem_ctrls.bw_read::.cpu.inst            508691                       # Total read bandwidth from this memory (bytes/s)
system.mem_ctrls.bw_read::.cpu.data         153171578                       # Total read bandwidth from this memory (bytes/s)
system.mem_ctrls.bw_read::total             153680269                       # Total read bandwidth from this memory (bytes/s)
system.mem_ctrls.bw_inst_read::.cpu.inst       508691                       # Instruction read bandwidth from this memory (bytes/s)
system.mem_ctrls.bw_inst_read::total           508691                       # Instruction read bandwidth from this memory (bytes/s)
system.mem_ctrls.bw_write::.writebacks       84508194                       # Write bandwidth from this memory (bytes/s)
system.mem_ctrls.bw_write::total             84508194                       # Write bandwidth from this memory (bytes/s)
system.mem_ctrls.bw_total::.writebacks       84508194                       # Total bandwidth to/from this memory (bytes/s)
system.mem_ctrls.bw_total::.cpu.inst           508691                       # Total bandwidth to/from this memory (bytes/s)
system.mem_ctrls.bw_total::.cpu.data        153171578                       # Total bandwidth to/from this memory (bytes/s)
system.mem_ctrls.bw_total::total            238188464                       # Total bandwidth to/from this memory (bytes/s)
system.mem_ctrls.avgPriority_.writebacks::samples    110974.00                       # Average QoS priority value for accepted requests
system.mem_ctrls.avgPriority_.cpu.inst::samples       668.00                       # Average QoS priority value for accepted requests
system.mem_ctrls.avgPriority_.cpu.data::samples    201123.00                       # Average QoS priority value for accepted requests
system.mem_ctrls.priorityMinLatency      0.000000018750                       # per QoS priority minimum request to response latency (s)
system.mem_ctrls.priorityMaxLatency      0.006042162500                       # per QoS priority maximum request to response latency (s)
system.mem_ctrls.numReadWriteTurnArounds         6635                       # Number of turnarounds from READ to WRITE
system.mem_ctrls.numWriteReadTurnArounds         6635                       # Number of turnarounds from WRITE to READ
system.mem_ctrls.numStayReadState              525790                       # Number of times bus staying in READ state
system.mem_ctrls.numStayWriteState             104461                       # Number of times bus staying in WRITE state
system.mem_ctrls.readReqs                      201810                       # Number of read requests accepted
system.mem_ctrls.writeReqs                     110974                       # Number of write requests accepted
system.mem_ctrls.readBursts                    201810                       # Number of DRAM read bursts, including those serviced by the write queue
system.mem_ctrls.writeBursts                   110974                       # Number of DRAM write bursts, including those merged in the write queue
system.mem_ctrls.servicedByWrQ                     19                       # Number of DRAM read bursts serviced by the write queue
system.mem_ctrls.mergedWrBursts                     0                       # Number of DRAM write bursts merged with an existing one
system.mem_ctrls.neitherReadNorWriteReqs            0                       # Number of requests that are neither read nor write
system.mem_ctrls.perBankRdBursts::0             13013                       # Per bank write bursts
system.mem_ctrls.perBankRdBursts::1             12835                       # Per bank write bursts
system.mem_ctrls.perBankRdBursts::2             12822                       # Per bank write bursts
system.mem_ctrls.perBankRdBursts::3             12577                       # Per bank write bursts
system.mem_ctrls.perBankRdBursts::4             12531                       # Per bank write bursts
system.mem_ctrls.perBankRdBursts::5             12416                       # Per bank write bursts
system.mem_ctrls.perBankRdBursts::6             12370                       # Per bank write bursts
system.mem_ctrls.perBankRdBursts::7             12498                       # Per bank write bursts
system.mem_ctrls.perBankRdBursts::8             12488                       # Per bank write bursts
system.mem_ctrls.perBankRdBursts::9             12465                       # Per bank write bursts
system.mem_ctrls.perBankRdBursts::10            12527                       # Per bank write bursts
system.mem_ctrls.perBankRdBursts::11            12475                       # Per bank write bursts
system.mem_ctrls.perBankRdBursts::12            12641                       # Per bank write bursts
system.mem_ctrls.perBankRdBursts::13            12715                       # Per bank write bursts
system.mem_ctrls.perBankRdBursts::14            12737                       # Per bank write bursts
system.mem_ctrls.perBankRdBursts::15            12681                       # Per bank write bursts
system.mem_ctrls.perBankWrBursts::0              7000                       # Per bank write bursts
system.mem_ctrls.perBankWrBursts::1              7136                       # Per bank write bursts
system.mem_ctrls.perBankWrBursts::2              7246                       # Per bank write bursts
system.mem_ctrls.perBankWrBursts::3              6857                       # Per bank write bursts
system.mem_ctrls.perBankWrBursts::4              6963                       # Per bank write bursts
system.mem_ctrls.perBankWrBursts::5              6958                       # Per bank write bursts
system.mem_ctrls.perBankWrBursts::6              6957                       # Per bank write bursts
system.mem_ctrls.perBankWrBursts::7              6839                       # Per bank write bursts
system.mem_ctrls.perBankWrBursts::8              6930                       # Per bank write bursts
system.mem_ctrls.perBankWrBursts::9              6759                       # Per bank write bursts
system.mem_ctrls.perBankWrBursts::10             6742                       # Per bank write bursts
system.mem_ctrls.perBankWrBursts::11             6933                       # Per bank write bursts
system.mem_ctrls.perBankWrBursts::12             6875                       # Per bank write bursts
system.mem_ctrls.perBankWrBursts::13             6930                       # Per bank write bursts
system.mem_ctrls.perBankWrBursts::14             6891                       # Per bank write bursts
system.mem_ctrls.perBankWrBursts::15             6926                       # Per bank write bursts
system.mem_ctrls.avgRdQLen                       1.08                       # Average read queue length when enqueuing
system.mem_ctrls.avgWrQLen                      24.52                       # Average write queue length when enqueuing
system.mem_ctrls.totQLat                   2899662750                       # Total ticks spent queuing
system.mem_ctrls.totBusLat                 1008955000                       # Total ticks spent in databus transfers
system.mem_ctrls.totMemAccLat              6683244000                       # Total ticks spent from burst creation until serviced by the DRAM
system.mem_ctrls.avgQLat                     14369.63                       # Average queueing delay per DRAM burst
system.mem_ctrls.avgBusLat                    5000.00                       # Average bus latency per DRAM burst
system.mem_ctrls.avgMemAccLat                33119.63                       # Average memory access latency per DRAM burst
system.mem_ctrls.numRdRetry                         0                       # Number of times read queue was full causing retry
system.mem_ctrls.numWrRetry                         0                       # Number of times write queue was full causing retry
system.mem_ctrls.readRowHits                   138656                       # Number of row buffer hits during reads
system.mem_ctrls.writeRowHits                   71283                       # Number of row buffer hits during writes
system.mem_ctrls.readRowHitRate                 68.71                       # Row buffer hit rate for reads
system.mem_ctrls.writeRowHitRate                64.23                       # Row buffer hit rate for writes
system.mem_ctrls.readPktSize::0                     0                       # Read request sizes (log2)
system.mem_ctrls.readPktSize::1                     0                       # Read request sizes (log2)
system.mem_ctrls.readPktSize::2                     0                       # Read request sizes (log2)
system.mem_ctrls.readPktSize::3                     0                       # Read request sizes (log2)
system.mem_ctrls.readPktSize::4                     0                       # Read request sizes (log2)
system.mem_ctrls.readPktSize::5                     0                       # Read request sizes (log2)
system.mem_ctrls.readPktSize::6                201810                       # Read request sizes (log2)
system.mem_ctrls.writePktSize::0                    0                       # Write request sizes (log2)
system.mem_ctrls.writePktSize::1                    0                       # Write request sizes (log2)
system.mem_ctrls.writePktSize::2                    0                       # Write request sizes (log2)
system.mem_ctrls.writePktSize::3                    0                       # Write request sizes (log2)
system.mem_ctrls.writePktSize::4                    0                       # Write request sizes (log2)
system.mem_ctrls.writePktSize::5                    0                       # Write request sizes (log2)
system.mem_ctrls.writePktSize::6               110974                       # Write request sizes (log2)
system.mem_ctrls.rdQLenPdf::0                  140689                       # What read queue length does an incoming req see
system.mem_ctrls.rdQLenPdf::1                   58673                       # What read queue length does an incoming req see
system.mem_ctrls.rdQLenPdf::2                    2136                       # What read queue length does an incoming req see
system.mem_ctrls.rdQLenPdf::3                     292                       # What read queue length does an incoming req see
system.mem_ctrls.rdQLenPdf::4                       1                       # What read queue length does an incoming req see
system.mem_ctrls.rdQLenPdf::5                       0                       # What read queue length does an incoming req see
system.mem_ctrls.rdQLenPdf::6                       0                       # What read queue length does an incoming req see
system.mem_ctrls.rdQLenPdf::7                       0                       # What read queue length does an incoming req see
system.mem_ctrls.rdQLenPdf::8                       0                       # What read queue length does an incoming req see
system.mem_ctrls.rdQLenPdf::9                       0                       # What read queue length does an incoming req see
system.mem_ctrls.rdQLenPdf::10                      0                       # What read queue length does an incoming req see
system.mem_ctrls.rdQLenPdf::11                      0                       # What read queue length does an incoming req see
system.mem_ctrls.rdQLenPdf::12                      0                       # What read queue length does an incoming req see
system.mem_ctrls.rdQLenPdf::13                      0                       # What read queue length does an incoming req see
system.mem_ctrls.rdQLenPdf::14                      0                       # What read queue length does an incoming req see
system.mem_ctrls.rdQLenPdf::15                      0                       # What read queue length does an incoming req see
system.mem_ctrls.rdQLenPdf::16                      0                       # What read queue length does an incoming req see
system.mem_ctrls.rdQLenPdf::17                      0                       # What read queue length does an incoming req see
system.mem_ctrls.rdQLenPdf::18                      0                       # What read queue length does an incoming req see
system.mem_ctrls.rdQLenPdf::19                      0                       # What read queue length does an incoming req see
system.mem_ctrls.rdQLenPdf::20                      0                       # What read queue length does an incoming req see
system.mem_ctrls.rdQLenPdf::21                      0                       # What read queue length does an incoming req see
system.mem_ctrls.rdQLenPdf::22                      0                       # What read queue length does an incoming req see
system.mem_ctrls.rdQLenPdf::23                      0                       # What read queue length does an incoming req see
system.mem_ctrls.rdQLenPdf::24                      0                       # What read queue length does an incoming req see
system.mem_ctrls.rdQLenPdf::25                      0                       # What read queue length does an incoming req see
system.mem_ctrls.rdQLenPdf::26                      0                       # What read queue length does an incoming req see
system.mem_ctrls.rdQLenPdf::27                      0                       # What read queue length does an incoming req see
system.mem_ctrls.rdQLenPdf::28                      0                       # What read queue length does an incoming req see
system.mem_ctrls.rdQLenPdf::29                      0                       # What read queue length does an incoming req see
system.mem_ctrls.rdQLenPdf::30                      0                       # What read queue length does an incoming req see
system.mem_ctrls.rdQLenPdf::31                      0                       # What read queue length does an incoming req see
system.mem_ctrls.wrQLenPdf::0                       1                       # What write queue length does an incoming req see
system.mem_ctrls.wrQLenPdf::1                       1                       # What write queue length does an incoming req see
system.mem_ctrls.wrQLenPdf::2                       1                       # What write queue length does an incoming req see
system.mem_ctrls.wrQLenPdf::3                       1                       # What write queue length does an incoming req see
system.mem_ctrls.wrQLenPdf::4                       1                       # What write queue length does an incoming req see
system.mem_ctrls.wrQLenPdf::5                       1                       # What write queue length does an incoming req see
system.mem_ctrls.wrQLenPdf::6                       1                       # What write queue length does an incoming req see
system.mem_ctrls.wrQLenPdf::7                       1                       # What write queue length does an incoming req see
system.mem_ctrls.wrQLenPdf::8                       1                       # What write queue length does an incoming req see
system.mem_ctrls.wrQLenPdf::9                       1                       # What write queue length does an incoming req see
system.mem_ctrls.wrQLenPdf::10                      1                       # What write queue length does an incoming req see
system.mem_ctrls.wrQLenPdf::11                      1                       # What write queue length does an incoming req see
system.mem_ctrls.wrQLenPdf::12                      1                       # What write queue length does an incoming req see
system.mem_ctrls.wrQLenPdf::13                      1                       # What write queue length does an incoming req see
system.mem_ctrls.wrQLenPdf::14                      1                       # What write queue length does an incoming req see
system.mem_ctrls.wrQLenPdf::15                   2270                       # What write queue length does an incoming req see
system.mem_ctrls.wrQLenPdf::16                   2292                       # What write queue length does an incoming req see
system.mem_ctrls.wrQLenPdf::17                   5547                       # What write queue length does an incoming req see
system.mem_ctrls.wrQLenPdf::18                   6689                       # What write queue length does an incoming req see
system.mem_ctrls.wrQLenPdf::19                   6685                       # What write queue length does an incoming req see
system.mem_ctrls.wrQLenPdf::20                   6787                       # What write queue length does an incoming req see
system.mem_ctrls.wrQLenPdf::21                   6691                       # What write queue length does an incoming req see
system.mem_ctrls.wrQLenPdf::22                   6688                       # What write queue length does an incoming req see
system.mem_ctrls.wrQLenPdf::23                   6692                       # What write queue length does an incoming req see
system.mem_ctrls.wrQLenPdf::24                   6730                       # What write queue length does an incoming req see
system.mem_ctrls.wrQLenPdf::25                   6789                       # What write queue length does an incoming req see
system.mem_ctrls.wrQLenPdf::26                   6700                       # What write queue length does an incoming req see
system.mem_ctrls.wrQLenPdf::27                   6659                       # What write queue length does an incoming req see
system.mem_ctrls.wrQLenPdf::28                   7134                       # What write queue length does an incoming req see
system.mem_ctrls.wrQLenPdf::29                   6689                       # What write queue length does an incoming req see
system.mem_ctrls.wrQLenPdf::30                   6643                       # What write queue length does an incoming req see
system.mem_ctrls.wrQLenPdf::31                   6636                       # What write queue length does an incoming req see
system.mem_ctrls.wrQLenPdf::32                   6635                       # What write queue length does an incoming req see
system.mem_ctrls.wrQLenPdf::33                      3                       # What write queue length does an incoming req see
system.mem_ctrls.wrQLenPdf::34                      0                       # What write queue length does an incoming req see
system.mem_ctrls.wrQLenPdf::35                      0                       # What write queue length does an incoming req see
system.mem_ctrls.wrQLenPdf::36                      0                       # What write queue length does an incoming req see
system.mem_ctrls.wrQLenPdf::37                      0                       # What write queue length does an incoming req see
system.mem_ctrls.wrQLenPdf::38                      0                       # What write queue length does an incoming req see
system.mem_ctrls.wrQLenPdf::39                      0                       # What write queue length does an incoming req see
system.mem_ctrls.wrQLenPdf::40                      0                       # What write queue length does an incoming req see
system.mem_ctrls.wrQLenPdf::41                      0                       # What write queue length does an incoming req see
system.mem_ctrls.wrQLenPdf::42                      0                       # What write queue length does an incoming req see
system.mem_ctrls.wrQLenPdf::43                      0                       # What write queue length does an incoming req see
system.mem_ctrls.wrQLenPdf::44                      0                       # What write queue length does an incoming req see
system.mem_ctrls.wrQLenPdf::45                      0                       # What write queue length does an incoming req see
system.mem_ctrls.wrQLenPdf::46                      0                       # What write queue length does an incoming req see
system.mem_ctrls.wrQLenPdf::47                      0                       # What write queue length does an incoming req see
system.mem_ctrls.wrQLenPdf::48                      0                       # What write queue length does an incoming req see
system.mem_ctrls.wrQLenPdf::49                      0                       # What write queue length does an incoming req see
system.mem_ctrls.wrQLenPdf::50                      0                       # What write queue length does an incoming req see
system.mem_ctrls.wrQLenPdf::51                      0                       # What write queue length does an incoming req see
system.mem_ctrls.wrQLenPdf::52                      0                       # What write queue length does an incoming req see
system.mem_ctrls.wrQLenPdf::53                      0                       # What write queue length does an incoming req see
system.mem_ctrls.wrQLenPdf::54                      0                       # What write queue length does an incoming req see
system.mem_ctrls.wrQLenPdf::55                      0                       # What write queue length does an incoming req see
system.mem_ctrls.wrQLenPdf::56                      0                       # What write queue length does an incoming req see
system.mem_ctrls.wrQLenPdf::57                      0                       # What write queue length does an incoming req see
system.mem_ctrls.wrQLenPdf::58                      0                       # What write queue length does an incoming req see
system.mem_ctrls.wrQLenPdf::59                      0                       # What write queue length does an incoming req see
system.mem_ctrls.wrQLenPdf::60                      0                       # What write queue length does an incoming req see
system.mem_ctrls.wrQLenPdf::61                      0                       # What write queue length does an incoming req see
system.mem_ctrls.wrQLenPdf::62                      0                       # What write queue length does an incoming req see
system.mem_ctrls.wrQLenPdf::63                      0                       # What write queue length does an incoming req see
system.mem_ctrls.bytesPerActivate::samples       102780                       # Bytes accessed per row activation
system.mem_ctrls.bytesPerActivate::mean    194.725511                       # Bytes accessed per row activation
system.mem_ctrls.bytesPerActivate::gmean   113.820102                       # Bytes accessed per row activation
system.mem_ctrls.bytesPerActivate::stdev   257.230958                       # Bytes accessed per row activation
system.mem_ctrls.bytesPerActivate::0-127        66221     64.43%     64.43% # Bytes accessed per row activation
system.mem_ctrls.bytesPerActivate::128-255        15162     14.75%     79.18% # Bytes accessed per row activation
system.mem_ctrls.bytesPerActivate::256-383         2473      2.41%     81.59% # Bytes accessed per row activation
system.mem_ctrls.bytesPerActivate::384-511         1624      1.58%     83.17% # Bytes accessed per row activation
system.mem_ctrls.bytesPerActivate::512-639         9859      9.59%     92.76% # Bytes accessed per row activation
system.mem_ctrls.bytesPerActivate::640-767         1022      0.99%     93.75% # Bytes accessed per row activation
system.mem_ctrls.bytesPerActivate::768-895          382      0.37%     94.13% # Bytes accessed per row activation
system.mem_ctrls.bytesPerActivate::896-1023          402      0.39%     94.52% # Bytes accessed per row activation
system.mem_ctrls.bytesPerActivate::1024-1151         5635      5.48%    100.00% # Bytes accessed per row activation
system.mem_ctrls.bytesPerActivate::total       102780                       # Bytes accessed per row activation
system.mem_ctrls.rdPerTurnAround::samples         6635                       # Reads before turning the bus around for writes
system.mem_ctrls.rdPerTurnAround::mean      30.410249                       # Reads before turning the bus around for writes
system.mem_ctrls.rdPerTurnAround::gmean     23.433507                       # Reads before turning the bus around for writes
system.mem_ctrls.rdPerTurnAround::stdev     74.015216                       # Reads before turning the bus around for writes
system.mem_ctrls.rdPerTurnAround::0-127          6484     97.72%     97.72% # Reads before turning the bus around for writes
system.mem_ctrls.rdPerTurnAround::128-255           14      0.21%     97.94% # Reads before turning the bus around for writes
system.mem_ctrls.rdPerTurnAround::256-383          126      1.90%     99.83% # Reads before turning the bus around for writes
system.mem_ctrls.rdPerTurnAround::512-639            1      0.02%     99.85% # Reads before turning the bus around for writes
system.mem_ctrls.rdPerTurnAround::640-767            1      0.02%     99.86% # Reads before turning the bus around for writes
system.mem_ctrls.rdPerTurnAround::768-895            2      0.03%     99.89% # Reads before turning the bus around for writes
system.mem_ctrls.rdPerTurnAround::896-1023            5      0.08%     99.97% # Reads before turning the bus around for writes
system.mem_ctrls.rdPerTurnAround::2432-2559            1      0.02%     99.98% # Reads before turning the bus around for writes
system.mem_ctrls.rdPerTurnAround::3840-3967            1      0.02%    100.00% # Reads before turning the bus around for writes
[...]
system.cpu.icache.ReadReq_avg_miss_latency::total 74113.788487                       # average ReadReq miss latency
system.cpu.icache.ReadReq_mshr_misses::.cpu.inst          747                       # number of ReadReq MSHR misses
system.cpu.icache.ReadReq_mshr_misses::total          747                       # number of ReadReq MSHR misses
system.cpu.icache.ReadReq_mshr_miss_latency::.cpu.inst     54616000                       # number of ReadReq MSHR miss cycles
system.cpu.icache.ReadReq_mshr_miss_latency::total     54616000                       # number of ReadReq MSHR miss cycles
system.cpu.icache.ReadReq_mshr_miss_rate::.cpu.inst     0.000077                       # mshr miss rate for ReadReq accesses
system.cpu.icache.ReadReq_mshr_miss_rate::total     0.000077                       # mshr miss rate for ReadReq accesses
system.cpu.icache.ReadReq_avg_mshr_miss_latency::.cpu.inst 73113.788487                       # average ReadReq mshr miss latency
system.cpu.icache.ReadReq_avg_mshr_miss_latency::total 73113.788487                       # average ReadReq mshr miss latency
system.cpu.icache.tags.pwrStateResidencyTicks::UNDEFINED  84043163500                       # Cumulative time (in ticks) in various power states
system.cpu.icache.tags.tagsinuse           360.988861                       # Cycle average of tags in use
system.cpu.icache.tags.total_refs             9663459                       # Total number of references to valid blocks.
system.cpu.icache.tags.sampled_refs               747                       # Sample count of references to valid blocks.
system.cpu.icache.tags.avg_refs          12936.357430                       # Average number of references to valid blocks.
system.cpu.icache.tags.warmup_cycle             87500                       # Cycle when the warmup percentage was hit.
system.cpu.icache.tags.occ_blocks::.cpu.inst   360.988861                       # Average occupied blocks per requestor
system.cpu.icache.tags.occ_percent::.cpu.inst     0.705056                       # Average percentage of cache occupancy
system.cpu.icache.tags.occ_percent::total     0.705056                       # Average percentage of cache occupancy
system.cpu.icache.tags.occ_task_id_blocks::1024          445                       # Occupied blocks per task id
system.cpu.icache.tags.age_task_id_blocks_1024::3          106                       # Occupied blocks per task id
system.cpu.icache.tags.age_task_id_blocks_1024::4          339                       # Occupied blocks per task id
system.cpu.icache.tags.occ_task_id_percent::1024     0.869141                       # Percentage of cache occupancy per task id
system.cpu.icache.tags.tag_accesses          19327665                       # Number of tag accesses
system.cpu.icache.tags.data_accesses         19327665                       # Number of data accesses
system.cpu.dtb.walker.pwrStateResidencyTicks::UNDEFINED  84043163500                       # Cumulative time (in ticks) in various power states
system.cpu.dtb.stage2_mmu.stage2_tlb.walker.pwrStateResidencyTicks::UNDEFINED  84043163500                       # Cumulative time (in ticks) in various power states
system.cpu.dcache.pwrStateResidencyTicks::UNDEFINED  84043163500                       # Cumulative time (in ticks) in various power states
system.cpu.dcache.demand_hits::.cpu.data     51305623                       # number of demand (read+write) hits
system.cpu.dcache.demand_hits::total         51305623                       # number of demand (read+write) hits
system.cpu.dcache.overall_hits::.cpu.data     51306128                       # number of overall hits
system.cpu.dcache.overall_hits::total        51306128                       # number of overall hits
system.cpu.dcache.demand_misses::.cpu.data       762831                       # number of demand (read+write) misses
system.cpu.dcache.demand_misses::total         762831                       # number of demand (read+write) misses
system.cpu.dcache.overall_misses::.cpu.data       770742                       # number of overall misses
system.cpu.dcache.overall_misses::total        770742                       # number of overall misses
system.cpu.dcache.demand_miss_latency::.cpu.data  25074534000                       # number of demand (read+write) miss cycles
system.cpu.dcache.demand_miss_latency::total  25074534000                       # number of demand (read+write) miss cycles
system.cpu.dcache.overall_miss_latency::.cpu.data  25074534000                       # number of overall miss cycles
system.cpu.dcache.overall_miss_latency::total  25074534000                       # number of overall miss cycles
system.cpu.dcache.demand_accesses::.cpu.data     52068454                       # number of demand (read+write) accesses
system.cpu.dcache.demand_accesses::total     52068454                       # number of demand (read+write) accesses
system.cpu.dcache.overall_accesses::.cpu.data     52076870                       # number of overall (read+write) accesses
system.cpu.dcache.overall_accesses::total     52076870                       # number of overall (read+write) accesses
system.cpu.dcache.demand_miss_rate::.cpu.data     0.014651                       # miss rate for demand accesses
system.cpu.dcache.demand_miss_rate::total     0.014651                       # miss rate for demand accesses
system.cpu.dcache.overall_miss_rate::.cpu.data     0.014800                       # miss rate for overall accesses
system.cpu.dcache.overall_miss_rate::total     0.014800                       # miss rate for overall accesses
system.cpu.dcache.demand_avg_miss_latency::.cpu.data 32870.365782                       # average overall miss latency
system.cpu.dcache.demand_avg_miss_latency::total 32870.365782                       # average overall miss latency
system.cpu.dcache.overall_avg_miss_latency::.cpu.data 32532.979908                       # average overall miss latency
system.cpu.dcache.overall_avg_miss_latency::total 32532.979908                       # average overall miss latency
system.cpu.dcache.blocked_cycles::no_mshrs       187181                       # number of cycles access was blocked
system.cpu.dcache.blocked_cycles::no_targets            0                       # number of cycles access was blocked
system.cpu.dcache.blocked::no_mshrs              3274                       # number of cycles access was blocked
system.cpu.dcache.blocked::no_targets               0                       # number of cycles access was blocked
system.cpu.dcache.avg_blocked_cycles::no_mshrs    57.171961                       # average number of cycles each access was blocked
system.cpu.dcache.avg_blocked_cycles::no_targets          nan                       # average number of cycles each access was blocked
system.cpu.dcache.writebacks::.writebacks       633953                       # number of writebacks
system.cpu.dcache.writebacks::total            633953                       # number of writebacks
system.cpu.dcache.demand_mshr_hits::.cpu.data        59141                       # number of demand (read+write) MSHR hits
system.cpu.dcache.demand_mshr_hits::total        59141                       # number of demand (read+write) MSHR hits
system.cpu.dcache.overall_mshr_hits::.cpu.data        59141                       # number of overall MSHR hits
system.cpu.dcache.overall_mshr_hits::total        59141                       # number of overall MSHR hits
system.cpu.dcache.demand_mshr_misses::.cpu.data       703690                       # number of demand (read+write) MSHR misses
system.cpu.dcache.demand_mshr_misses::total       703690                       # number of demand (read+write) MSHR misses
system.cpu.dcache.overall_mshr_misses::.cpu.data       711596                       # number of overall MSHR misses
system.cpu.dcache.overall_mshr_misses::total       711596                       # number of overall MSHR misses
system.cpu.dcache.demand_mshr_miss_latency::.cpu.data  22763682000                       # number of demand (read+write) MSHR miss cycles
system.cpu.dcache.demand_mshr_miss_latency::total  22763682000                       # number of demand (read+write) MSHR miss cycles
system.cpu.dcache.overall_mshr_miss_latency::.cpu.data  23406892999                       # number of overall MSHR miss cycles
system.cpu.dcache.overall_mshr_miss_latency::total  23406892999                       # number of overall MSHR miss cycles
system.cpu.dcache.demand_mshr_miss_rate::.cpu.data     0.013515                       # mshr miss rate for demand accesses
system.cpu.dcache.demand_mshr_miss_rate::total     0.013515                       # mshr miss rate for demand accesses
system.cpu.dcache.overall_mshr_miss_rate::.cpu.data     0.013664                       # mshr miss rate for overall accesses
system.cpu.dcache.overall_mshr_miss_rate::total     0.013664                       # mshr miss rate for overall accesses
system.cpu.dcache.demand_avg_mshr_miss_latency::.cpu.data 32349.020165                       # average overall mshr miss latency
system.cpu.dcache.demand_avg_mshr_miss_latency::total 32349.020165                       # average overall mshr miss latency
system.cpu.dcache.overall_avg_mshr_miss_latency::.cpu.data 32893.514015                       # average overall mshr miss latency
system.cpu.dcache.overall_avg_mshr_miss_latency::total 32893.514015                       # average overall mshr miss latency
system.cpu.dcache.replacements                 710571                       # number of replacements
system.cpu.dcache.ReadReq_hits::.cpu.data     40700305                       # number of ReadReq hits
system.cpu.dcache.ReadReq_hits::total        40700305                       # number of ReadReq hits
system.cpu.dcache.ReadReq_misses::.cpu.data       418048                       # number of ReadReq misses
system.cpu.dcache.ReadReq_misses::total        418048                       # number of ReadReq misses
system.cpu.dcache.ReadReq_miss_latency::.cpu.data   9395300000                       # number of ReadReq miss cycles
system.cpu.dcache.ReadReq_miss_latency::total   9395300000                       # number of ReadReq miss cycles
system.cpu.dcache.ReadReq_accesses::.cpu.data     41118353                       # number of ReadReq accesses(hits+misses)
system.cpu.dcache.ReadReq_accesses::total     41118353                       # number of ReadReq accesses(hits+misses)
system.cpu.dcache.ReadReq_miss_rate::.cpu.data     0.010167                       # miss rate for ReadReq accesses
system.cpu.dcache.ReadReq_miss_rate::total     0.010167                       # miss rate for ReadReq accesses
system.cpu.dcache.ReadReq_avg_miss_latency::.cpu.data 22474.213487                       # average ReadReq miss latency
system.cpu.dcache.ReadReq_avg_miss_latency::total 22474.213487                       # average ReadReq miss latency
system.cpu.dcache.ReadReq_mshr_hits::.cpu.data          702                       # number of ReadReq MSHR hits
system.cpu.dcache.ReadReq_mshr_hits::total          702                       # number of ReadReq MSHR hits
system.cpu.dcache.ReadReq_mshr_misses::.cpu.data       417346                       # number of ReadReq MSHR misses
system.cpu.dcache.ReadReq_mshr_misses::total       417346                       # number of ReadReq MSHR misses
system.cpu.dcache.ReadReq_mshr_miss_latency::.cpu.data   8952121000                       # number of ReadReq MSHR miss cycles
system.cpu.dcache.ReadReq_mshr_miss_latency::total   8952121000                       # number of ReadReq MSHR miss cycles
system.cpu.dcache.ReadReq_mshr_miss_rate::.cpu.data     0.010150                       # mshr miss rate for ReadReq accesses
system.cpu.dcache.ReadReq_mshr_miss_rate::total     0.010150                       # mshr miss rate for ReadReq accesses
system.cpu.dcache.ReadReq_avg_mshr_miss_latency::.cpu.data 21450.118127                       # average ReadReq mshr miss latency
system.cpu.dcache.ReadReq_avg_mshr_miss_latency::total 21450.118127                       # average ReadReq mshr miss latency
system.cpu.dcache.WriteReq_hits::.cpu.data     10605318                       # number of WriteReq hits
system.cpu.dcache.WriteReq_hits::total       10605318                       # number of WriteReq hits
system.cpu.dcache.WriteReq_misses::.cpu.data       344783                       # number of WriteReq misses
system.cpu.dcache.WriteReq_misses::total       344783                       # number of WriteReq misses
system.cpu.dcache.WriteReq_miss_latency::.cpu.data  15679234000                       # number of WriteReq miss cycles
system.cpu.dcache.WriteReq_miss_latency::total  15679234000                       # number of WriteReq miss cycles
system.cpu.dcache.WriteReq_accesses::.cpu.data     10950101                       # number of WriteReq accesses(hits+misses)
system.cpu.dcache.WriteReq_accesses::total     10950101                       # number of WriteReq accesses(hits+misses)
system.cpu.dcache.WriteReq_miss_rate::.cpu.data     0.031487                       # miss rate for WriteReq accesses
system.cpu.dcache.WriteReq_miss_rate::total     0.031487                       # miss rate for WriteReq accesses
system.cpu.dcache.WriteReq_avg_miss_latency::.cpu.data 45475.658603                       # average WriteReq miss latency
system.cpu.dcache.WriteReq_avg_miss_latency::total 45475.658603                       # average WriteReq miss latency
system.cpu.dcache.WriteReq_mshr_hits::.cpu.data        58439                       # number of WriteReq MSHR hits
system.cpu.dcache.WriteReq_mshr_hits::total        58439                       # number of WriteReq MSHR hits
system.cpu.dcache.WriteReq_mshr_misses::.cpu.data       286344                       # number of WriteReq MSHR misses
system.cpu.dcache.WriteReq_mshr_misses::total       286344                       # number of WriteReq MSHR misses
system.cpu.dcache.WriteReq_mshr_miss_latency::.cpu.data  13811561000                       # number of WriteReq MSHR miss cycles
system.cpu.dcache.WriteReq_mshr_miss_latency::total  13811561000                       # number of WriteReq MSHR miss cycles
system.cpu.dcache.WriteReq_mshr_miss_rate::.cpu.data     0.026150                       # mshr miss rate for WriteReq accesses
system.cpu.dcache.WriteReq_mshr_miss_rate::total     0.026150                       # mshr miss rate for WriteReq accesses
system.cpu.dcache.WriteReq_avg_mshr_miss_latency::.cpu.data 48234.155421                       # average WriteReq mshr miss latency
system.cpu.dcache.WriteReq_avg_mshr_miss_latency::total 48234.155421                       # average WriteReq mshr miss latency
system.cpu.dcache.SoftPFReq_hits::.cpu.data          505                       # number of SoftPFReq hits
system.cpu.dcache.SoftPFReq_hits::total           505                       # number of SoftPFReq hits
system.cpu.dcache.SoftPFReq_misses::.cpu.data         7911                       # number of SoftPFReq misses
system.cpu.dcache.SoftPFReq_misses::total         7911                       # number of SoftPFReq misses
system.cpu.dcache.SoftPFReq_accesses::.cpu.data         8416                       # number of SoftPFReq accesses(hits+misses)
system.cpu.dcache.SoftPFReq_accesses::total         8416                       # number of SoftPFReq accesses(hits+misses)
system.cpu.dcache.SoftPFReq_miss_rate::.cpu.data     0.939995                       # miss rate for SoftPFReq accesses
system.cpu.dcache.SoftPFReq_miss_rate::total     0.939995                       # miss rate for SoftPFReq accesses
system.cpu.dcache.SoftPFReq_mshr_misses::.cpu.data         7906                       # number of SoftPFReq MSHR misses
system.cpu.dcache.SoftPFReq_mshr_misses::total         7906                       # number of SoftPFReq MSHR misses
system.cpu.dcache.SoftPFReq_mshr_miss_latency::.cpu.data    643210999                       # number of SoftPFReq MSHR miss cycles
system.cpu.dcache.SoftPFReq_mshr_miss_latency::total    643210999                       # number of SoftPFReq MSHR miss cycles
system.cpu.dcache.SoftPFReq_mshr_miss_rate::.cpu.data     0.939401                       # mshr miss rate for SoftPFReq accesses
system.cpu.dcache.SoftPFReq_mshr_miss_rate::total     0.939401                       # mshr miss rate for SoftPFReq accesses
system.cpu.dcache.SoftPFReq_avg_mshr_miss_latency::.cpu.data 81357.323425                       # average SoftPFReq mshr miss latency
system.cpu.dcache.SoftPFReq_avg_mshr_miss_latency::total 81357.323425                       # average SoftPFReq mshr miss latency
system.cpu.dcache.LoadLockedReq_hits::.cpu.data           38                       # number of LoadLockedReq hits
system.cpu.dcache.LoadLockedReq_hits::total           38                       # number of LoadLockedReq hits
system.cpu.dcache.LoadLockedReq_accesses::.cpu.data           38                       # number of LoadLockedReq accesses(hits+misses)
system.cpu.dcache.LoadLockedReq_accesses::total           38                       # number of LoadLockedReq accesses(hits+misses)
system.cpu.dcache.StoreCondReq_hits::.cpu.data           38                       # number of StoreCondReq hits
system.cpu.dcache.StoreCondReq_hits::total           38                       # number of StoreCondReq hits
system.cpu.dcache.StoreCondReq_accesses::.cpu.data           38                       # number of StoreCondReq accesses(hits+misses)
system.cpu.dcache.StoreCondReq_accesses::total           38                       # number of StoreCondReq accesses(hits+misses)
system.cpu.dcache.tags.pwrStateResidencyTicks::UNDEFINED  84043163500                       # Cumulative time (in ticks) in various power states
system.cpu.dcache.tags.tagsinuse          1008.206689                       # Cycle average of tags in use
system.cpu.dcache.tags.total_refs            52017799                       # Total number of references to valid blocks.
system.cpu.dcache.tags.sampled_refs            711595                       # Sample count of references to valid blocks.
system.cpu.dcache.tags.avg_refs             73.100287                       # Average number of references to valid blocks.
system.cpu.dcache.tags.warmup_cycle            176500                       # Cycle when the warmup percentage was hit.
system.cpu.dcache.tags.occ_blocks::.cpu.data  1008.206689                       # Average occupied blocks per requestor
system.cpu.dcache.tags.occ_percent::.cpu.data     0.984577                       # Average percentage of cache occupancy
system.cpu.dcache.tags.occ_percent::total     0.984577                       # Average percentage of cache occupancy
system.cpu.dcache.tags.occ_task_id_blocks::1024         1024                       # Occupied blocks per task id
system.cpu.dcache.tags.age_task_id_blocks_1024::0          242                       # Occupied blocks per task id
system.cpu.dcache.tags.age_task_id_blocks_1024::1          433                       # Occupied blocks per task id
system.cpu.dcache.tags.age_task_id_blocks_1024::2          347                       # Occupied blocks per task id
system.cpu.dcache.tags.age_task_id_blocks_1024::3            2                       # Occupied blocks per task id
system.cpu.dcache.tags.occ_task_id_percent::1024            1                       # Percentage of cache occupancy per task id
system.cpu.dcache.tags.tag_accesses         104865487                       # Number of tag accesses
system.cpu.dcache.tags.data_accesses        104865487                       # Number of data accesses
system.cpu.itb.walker.pwrStateResidencyTicks::UNDEFINED  84043163500                       # Cumulative time (in ticks) in various power states
system.cpu.itb.stage2_mmu.stage2_tlb.walker.pwrStateResidencyTicks::UNDEFINED  84043163500                       # Cumulative time (in ticks) in various power states

---------- End Simulation Statistics   ----------
