
---------- Begin Simulation Statistics ----------
final_tick                               339968117500                       # Number of ticks from beginning of simulation (restored from checkpoints and never reset)
host_inst_rate                                 154612                       # Simulator instruction rate (inst/s)
host_mem_usage                                 688956                       # Number of bytes of host memory used
host_op_rate                                   284756                       # Simulator op (including micro ops) rate (op/s)
host_seconds                                   646.78                       # Real time elapsed on the host
host_tick_rate                              525630966                       # Simulator tick rate (ticks/s)
sim_freq                                 1000000000000                       # Frequency of simulated ticks
sim_insts                                   100000000                       # Number of instructions simulated
sim_ops                                     184174857                       # Number of ops (including micro ops) simulated
sim_seconds                                  0.339968                       # Number of seconds simulated
sim_ticks                                339968117500                       # Number of ticks simulated
system.cpu.branchPred.BTBCorrect                    0                       # Number of correct BTB predictions (this stat may not work properly.
system.cpu.branchPred.BTBHitPct             99.956235                       # BTB Hit Percentage
system.cpu.branchPred.BTBHits                10560985                       # Number of BTB hits
system.cpu.branchPred.BTBLookups             10565609                       # Number of BTB lookups
system.cpu.branchPred.RASInCorrect                  5                       # Number of incorrect RAS predictions.
system.cpu.branchPred.condIncorrect              1455                       # Number of conditional branches incorrect
system.cpu.branchPred.condPredicted          10562095                       # Number of conditional branches predicted
system.cpu.branchPred.indirectHits                 27                       # Number of indirect target hits.
system.cpu.branchPred.indirectLookups             200                       # Number of indirect predictor lookups.
system.cpu.branchPred.indirectMisses              173                       # Number of indirect misses.
system.cpu.branchPred.lookups                10570306                       # Number of BP lookups
system.cpu.branchPred.usedRAS                    2717                       # Number of times the RAS was used to get a target.
system.cpu.branchPredindirectMispredicted           99                       # Number of mispredicted indirect branches.
system.cpu.committedInsts                   100000000                       # Number of instructions committed
system.cpu.committedOps                     184174857                       # Number of ops (including micro ops) committed
system.cpu.cpi                               6.799362                       # CPI: cycles per instruction
system.cpu.discardedOps                          4283                       # Number of ops (including micro ops) which were discarded before commit
system.cpu.dtb.accesses                             0                       # DTB accesses
system.cpu.dtb.align_faults                         0                       # Number of TLB faults due to alignment restrictions
system.cpu.dtb.domain_faults                        0                       # Number of TLB faults due to domain restrictions
system.cpu.dtb.flush_entries                        0                       # Number of entries that have been flushed from TLB
system.cpu.dtb.flush_tlb                            0                       # Number of times complete TLB was flushed
system.cpu.dtb.flush_tlb_asid                       0                       # Number of times TLB was flushed by ASID
system.cpu.dtb.flush_tlb_mva                        0                       # Number of times TLB was flushed by MVA
system.cpu.dtb.flush_tlb_mva_asid                   0                       # Number of times TLB was flushed by MVA & ASID
system.cpu.dtb.hits                                 0                       # DTB hits
system.cpu.dtb.inst_accesses                        0                       # ITB inst accesses
system.cpu.dtb.inst_hits                            0                       # ITB inst hits
system.cpu.dtb.inst_misses                          0                       # ITB inst misses
system.cpu.dtb.misses                               0                       # DTB misses
system.cpu.dtb.perms_faults                         0                       # Number of TLB faults due to permissions restrictions
system.cpu.dtb.prefetch_faults                      0                       # Number of TLB faults due to prefetch
system.cpu.dtb.read_accesses                        0                       # DTB read accesses
system.cpu.dtb.read_hits                            0                       # DTB read hits
system.cpu.dtb.read_misses                          0                       # DTB read misses
system.cpu.dtb.stage2_mmu.stage2_tlb.accesses            0                       # DTB accesses
system.cpu.dtb.stage2_mmu.stage2_tlb.align_faults            0                       # Number of TLB faults due to alignment restrictions
system.cpu.dtb.stage2_mmu.stage2_tlb.domain_faults            0                       # Number of TLB faults due to domain restrictions
system.cpu.dtb.stage2_mmu.stage2_tlb.flush_entries            0                       # Number of entries that have been flushed from TLB
system.cpu.dtb.stage2_mmu.stage2_tlb.flush_tlb            0                       # Number of times complete TLB was flushed
system.cpu.dtb.stage2_mmu.stage2_tlb.flush_tlb_asid            0                       # Number of times TLB was flushed by ASID
system.cpu.dtb.stage2_mmu.stage2_tlb.flush_tlb_mva            0                       # Number of times TLB was flushed by MVA
system.cpu.dtb.stage2_mmu.stage2_tlb.flush_tlb_mva_asid            0                       # Number of times TLB was flushed by MVA & ASID
system.cpu.dtb.stage2_mmu.stage2_tlb.hits            0                       # DTB hits
system.cpu.dtb.stage2_mmu.stage2_tlb.inst_accesses            0                       # ITB inst accesses
system.cpu.dtb.stage2_mmu.stage2_tlb.inst_hits            0                       # ITB inst hits
system.cpu.dtb.stage2_mmu.stage2_tlb.inst_misses            0                       # ITB inst misses
system.cpu.dtb.stage2_mmu.stage2_tlb.misses            0                       # DTB misses
system.cpu.dtb.stage2_mmu.stage2_tlb.perms_faults            0                       # Number of TLB faults due to permissions restrictions
system.cpu.dtb.stage2_mmu.stage2_tlb.prefetch_faults            0                       # Number of TLB faults due to prefetch
system.cpu.dtb.stage2_mmu.stage2_tlb.read_accesses            0                       # DTB read accesses
system.cpu.dtb.stage2_mmu.stage2_tlb.read_hits            0                       # DTB read hits
system.cpu.dtb.stage2_mmu.stage2_tlb.read_misses            0                       # DTB read misses
system.cpu.dtb.stage2_mmu.stage2_tlb.walker.walkRequestOrigin_Requested::Data            0                       # Table walker requests started/completed, data/inst
system.cpu.dtb.stage2_mmu.stage2_tlb.walker.walkRequestOrigin_Requested::Inst            0                       # Table walker requests started/completed, data/inst
system.cpu.dtb.stage2_mmu.stage2_tlb.walker.walkRequestOrigin_Requested::total            0                       # Table walker requests started/completed, data/inst
system.cpu.dtb.stage2_mmu.stage2_tlb.walker.walkRequestOrigin_Completed::Data            0                       # Table walker requests started/completed, data/inst
system.cpu.dtb.stage2_mmu.stage2_tlb.walker.walkRequestOrigin_Completed::Inst            0                       # Table walker requests started/completed, data/inst
system.cpu.dtb.stage2_mmu.stage2_tlb.walker.walkRequestOrigin_Completed::total            0                       # Table walker requests started/completed, data/inst
system.cpu.dtb.stage2_mmu.stage2_tlb.walker.walkRequestOrigin::total            0                       # Table walker requests started/completed, data/inst
system.cpu.dtb.stage2_mmu.stage2_tlb.walker.walks            0                       # Table walker walks requested
system.cpu.dtb.stage2_mmu.stage2_tlb.write_accesses            0                       # DTB write accesses
system.cpu.dtb.stage2_mmu.stage2_tlb.write_hits            0                       # DTB write hits
system.cpu.dtb.stage2_mmu.stage2_tlb.write_misses            0                       # DTB write misses
system.cpu.dtb.walker.walkRequestOrigin_Requested::Data            0                       # Table walker requests started/completed, data/inst
system.cpu.dtb.walker.walkRequestOrigin_Requested::Inst            0                       # Table walker requests started/completed, data/inst
system.cpu.dtb.walker.walkRequestOrigin_Requested::total            0                       # Table walker requests started/completed, data/inst
system.cpu.dtb.walker.walkRequestOrigin_Completed::Data            0                       # Table walker requests started/completed, data/inst
system.cpu.dtb.walker.walkRequestOrigin_Completed::Inst            0                       # Table walker requests started/completed, data/inst
system.cpu.dtb.walker.walkRequestOrigin_Completed::total            0                       # Table walker requests started/completed, data/inst
system.cpu.dtb.walker.walkRequestOrigin::total            0                       # Table walker requests started/completed, data/inst
system.cpu.dtb.walker.walks                         0                       # Table walker walks requested
system.cpu.dtb.write_accesses                       0                       # DTB write accesses
system.cpu.dtb.write_hits                           0                       # DTB write hits
system.cpu.dtb.write_misses                         0                       # DTB write misses
system.cpu.fetch2.amo_instructions                  0                       # Number of memory atomic instructions successfully decoded
system.cpu.fetch2.fp_instructions                   0                       # Number of floating point instructions successfully decoded
system.cpu.fetch2.int_instructions           44895123                       # Number of integer instructions successfully decoded
system.cpu.fetch2.load_instructions           2086459                       # Number of memory load instructions successfully decoded
system.cpu.fetch2.store_instructions           169135                       # Number of memory store instructions successfully decoded
system.cpu.fetch2.vec_instructions                  0                       # Number of SIMD instructions successfully decoded
system.cpu.idleCycles                       461363957                       # Total number of cycles that the object has spent stopped
system.cpu.ipc                               0.147073                       # IPC: instructions per cycle
system.cpu.itb.accesses                             0                       # DTB accesses
system.cpu.itb.align_faults                         0                       # Number of TLB faults due to alignment restrictions
system.cpu.itb.domain_faults                        0                       # Number of TLB faults due to domain restrictions
system.cpu.itb.flush_entries                        0                       # Number of entries that have been flushed from TLB
system.cpu.itb.flush_tlb                            0                       # Number of times complete TLB was flushed
system.cpu.itb.flush_tlb_asid                       0                       # Number of times TLB was flushed by ASID
system.cpu.itb.flush_tlb_mva                        0                       # Number of times TLB was flushed by MVA
system.cpu.itb.flush_tlb_mva_asid                   0                       # Number of times TLB was flushed by MVA & ASID
system.cpu.itb.hits                                 0                       # DTB hits
system.cpu.itb.inst_accesses                        0                       # ITB inst accesses
system.cpu.itb.inst_hits                            0                       # ITB inst hits
system.cpu.itb.inst_misses                          0                       # ITB inst misses
system.cpu.itb.misses                               0                       # DTB misses
system.cpu.itb.perms_faults                         0                       # Number of TLB faults due to permissions restrictions
system.cpu.itb.prefetch_faults                      0                       # Number of TLB faults due to prefetch
system.cpu.itb.read_accesses                        0                       # DTB read accesses
system.cpu.itb.read_hits                            0                       # DTB read hits
system.cpu.itb.read_misses                          0                       # DTB read misses
system.cpu.itb.stage2_mmu.stage2_tlb.accesses            0                       # DTB accesses
system.cpu.itb.stage2_mmu.stage2_tlb.align_faults            0                       # Number of TLB faults due to alignment restrictions
system.cpu.itb.stage2_mmu.stage2_tlb.domain_faults            0                       # Number of TLB faults due to domain restrictions
system.cpu.itb.stage2_mmu.stage2_tlb.flush_entries            0                       # Number of entries that have been flushed from TLB
system.cpu.itb.stage2_mmu.stage2_tlb.flush_tlb            0                       # Number of times complete TLB was flushed
system.cpu.itb.stage2_mmu.stage2_tlb.flush_tlb_asid            0                       # Number of times TLB was flushed by ASID
system.cpu.itb.stage2_mmu.stage2_tlb.flush_tlb_mva            0                       # Number of times TLB was flushed by MVA
system.cpu.itb.stage2_mmu.stage2_tlb.flush_tlb_mva_asid            0                       # Number of times TLB was flushed by MVA & ASID
system.cpu.itb.stage2_mmu.stage2_tlb.hits            0                       # DTB hits
system.cpu.itb.stage2_mmu.stage2_tlb.inst_accesses            0                       # ITB inst accesses
system.cpu.itb.stage2_mmu.stage2_tlb.inst_hits            0                       # ITB inst hits
system.cpu.itb.stage2_mmu.stage2_tlb.inst_misses            0                       # ITB inst misses
system.cpu.itb.stage2_mmu.stage2_tlb.misses            0                       # DTB misses
system.cpu.itb.stage2_mmu.stage2_tlb.perms_faults            0                       # Number of TLB faults due to permissions restrictions
system.cpu.itb.stage2_mmu.stage2_tlb.prefetch_faults            0                       # Number of TLB faults due to prefetch
system.cpu.itb.stage2_mmu.stage2_tlb.read_accesses            0                       # DTB read accesses
system.cpu.itb.stage2_mmu.stage2_tlb.read_hits            0                       # DTB read hits
system.cpu.itb.stage2_mmu.stage2_tlb.read_misses            0                       # DTB read misses
system.cpu.itb.stage2_mmu.stage2_tlb.walker.walkRequestOrigin_Requested::Data            0                       # Table walker requests started/completed, data/inst
system.cpu.itb.stage2_mmu.stage2_tlb.walker.walkRequestOrigin_Requested::Inst            0                       # Table walker requests started/completed, data/inst
system.cpu.itb.stage2_mmu.stage2_tlb.walker.walkRequestOrigin_Requested::total            0                       # Table walker requests started/completed, data/inst
system.cpu.itb.stage2_mmu.stage2_tlb.walker.walkRequestOrigin_Completed::Data            0                       # Table walker requests started/completed, data/inst
system.cpu.itb.stage2_mmu.stage2_tlb.walker.walkRequestOrigin_Completed::Inst            0                       # Table walker requests started/completed, data/inst
system.cpu.itb.stage2_mmu.stage2_tlb.walker.walkRequestOrigin_Completed::total            0                       # Table walker requests started/completed, data/inst
system.cpu.itb.stage2_mmu.stage2_tlb.walker.walkRequestOrigin::total            0                       # Table walker requests started/completed, data/inst
system.cpu.itb.stage2_mmu.stage2_tlb.walker.walks            0                       # Table walker walks requested
system.cpu.itb.stage2_mmu.stage2_tlb.write_accesses            0                       # DTB write accesses
system.cpu.itb.stage2_mmu.stage2_tlb.write_hits            0                       # DTB write hits
system.cpu.itb.stage2_mmu.stage2_tlb.write_misses            0                       # DTB write misses
system.cpu.itb.walker.walkRequestOrigin_Requested::Data            0                       # Table walker requests started/completed, data/inst
system.cpu.itb.walker.walkRequestOrigin_Requested::Inst            0                       # Table walker requests started/completed, data/inst
system.cpu.itb.walker.walkRequestOrigin_Requested::total            0                       # Table walker requests started/completed, data/inst
system.cpu.itb.walker.walkRequestOrigin_Completed::Data            0                       # Table walker requests started/completed, data/inst
system.cpu.itb.walker.walkRequestOrigin_Completed::Inst            0                       # Table walker requests started/completed, data/inst
system.cpu.itb.walker.walkRequestOrigin_Completed::total            0                       # Table walker requests started/completed, data/inst
system.cpu.itb.walker.walkRequestOrigin::total            0                       # Table walker requests started/completed, data/inst
system.cpu.itb.walker.walks                         0                       # Table walker walks requested
system.cpu.itb.write_accesses                       0                       # DTB write accesses
system.cpu.itb.write_hits                           0                       # DTB write hits
system.cpu.itb.write_misses                         0                       # DTB write misses
system.cpu.numCycles                        679936235                       # number of cpu cycles simulated
system.cpu.numFetchSuspends                         0                       # Number of times Execute suspended instruction fetching
system.cpu.numWorkItemsCompleted                    0                       # number of work items this cpu completed
system.cpu.numWorkItemsStarted                      0                       # number of work items this cpu started
system.cpu.op_class_0::No_OpClass                   0      0.00%      0.00% # Class of committed instruction
system.cpu.op_class_0::IntAlu                97640483     53.02%     53.02% # Class of committed instruction
system.cpu.op_class_0::IntMult                 114699      0.06%     53.08% # Class of committed instruction
system.cpu.op_class_0::IntDiv                       0      0.00%     53.08% # Class of committed instruction
system.cpu.op_class_0::FloatAdd                     0      0.00%     53.08% # Class of committed instruction
system.cpu.op_class_0::FloatCmp                     0      0.00%     53.08% # Class of committed instruction
system.cpu.op_class_0::FloatCvt                     0      0.00%     53.08% # Class of committed instruction
system.cpu.op_class_0::FloatMult                    0      0.00%     53.08% # Class of committed instruction
system.cpu.op_class_0::FloatMultAcc                 0      0.00%     53.08% # Class of committed instruction
system.cpu.op_class_0::FloatDiv                     0      0.00%     53.08% # Class of committed instruction
system.cpu.op_class_0::FloatMisc                    0      0.00%     53.08% # Class of committed instruction
system.cpu.op_class_0::FloatSqrt                    0      0.00%     53.08% # Class of committed instruction
system.cpu.op_class_0::SimdAdd                      8      0.00%     53.08% # Class of committed instruction
system.cpu.op_class_0::SimdAddAcc                   0      0.00%     53.08% # Class of committed instruction
system.cpu.op_class_0::SimdAlu                      8      0.00%     53.08% # Class of committed instruction
system.cpu.op_class_0::SimdCmp                      6      0.00%     53.08% # Class of committed instruction
system.cpu.op_class_0::SimdCvt                      0      0.00%     53.08% # Class of committed instruction
system.cpu.op_class_0::SimdMisc                     1      0.00%     53.08% # Class of committed instruction
system.cpu.op_class_0::SimdMult                     0      0.00%     53.08% # Class of committed instruction
system.cpu.op_class_0::SimdMultAcc                  0      0.00%     53.08% # Class of committed instruction
system.cpu.op_class_0::SimdShift                    0      0.00%     53.08% # Class of committed instruction
system.cpu.op_class_0::SimdShiftAcc                 0      0.00%     53.08% # Class of committed instruction
system.cpu.op_class_0::SimdDiv                      0      0.00%     53.08% # Class of committed instruction
system.cpu.op_class_0::SimdSqrt                     0      0.00%     53.08% # Class of committed instruction
system.cpu.op_class_0::SimdFloatAdd                 0      0.00%     53.08% # Class of committed instruction
system.cpu.op_class_0::SimdFloatAlu                 0      0.00%     53.08% # Class of committed instruction
system.cpu.op_class_0::SimdFloatCmp                 0      0.00%     53.08% # Class of committed instruction
system.cpu.op_class_0::SimdFloatCvt                 0      0.00%     53.08% # Class of committed instruction
system.cpu.op_class_0::SimdFloatDiv                 0      0.00%     53.08% # Class of committed instruction
system.cpu.op_class_0::SimdFloatMisc               23      0.00%     53.08% # Class of committed instruction
system.cpu.op_class_0::SimdFloatMult                0      0.00%     53.08% # Class of committed instruction
system.cpu.op_class_0::SimdFloatMultAcc             0      0.00%     53.08% # Class of committed instruction
system.cpu.op_class_0::SimdFloatSqrt                0      0.00%     53.08% # Class of committed instruction
system.cpu.op_class_0::SimdReduceAdd                0      0.00%     53.08% # Class of committed instruction
system.cpu.op_class_0::SimdReduceAlu                0      0.00%     53.08% # Class of committed instruction
system.cpu.op_class_0::SimdReduceCmp                0      0.00%     53.08% # Class of committed instruction
system.cpu.op_class_0::SimdFloatReduceAdd            0      0.00%     53.08% # Class of committed instruction
system.cpu.op_class_0::SimdFloatReduceCmp            0      0.00%     53.08% # Class of committed instruction
system.cpu.op_class_0::SimdAes                      0      0.00%     53.08% # Class of committed instruction
system.cpu.op_class_0::SimdAesMix                   0      0.00%     53.08% # Class of committed instruction
system.cpu.op_class_0::SimdSha1Hash                 0      0.00%     53.08% # Class of committed instruction
system.cpu.op_class_0::SimdSha1Hash2                0      0.00%     53.08% # Class of committed instruction
system.cpu.op_class_0::SimdSha256Hash               0      0.00%     53.08% # Class of committed instruction
system.cpu.op_class_0::SimdSha256Hash2              0      0.00%     53.08% # Class of committed instruction
system.cpu.op_class_0::SimdShaSigma2                0      0.00%     53.08% # Class of committed instruction
system.cpu.op_class_0::SimdShaSigma3                0      0.00%     53.08% # Class of committed instruction
system.cpu.op_class_0::SimdPredAlu                  0      0.00%     53.08% # Class of committed instruction
system.cpu.op_class_0::MemRead                2082677      1.13%     54.21% # Class of committed instruction
system.cpu.op_class_0::MemWrite              84336952     45.79%    100.00% # Class of committed instruction
system.cpu.op_class_0::FloatMemRead                 0      0.00%    100.00% # Class of committed instruction
system.cpu.op_class_0::FloatMemWrite                0      0.00%    100.00% # Class of committed instruction
system.cpu.op_class_0::IprAccess                    0      0.00%    100.00% # Class of committed instruction
system.cpu.op_class_0::InstPrefetch                 0      0.00%    100.00% # Class of committed instruction
system.cpu.op_class_0::total                184174857                       # Class of committed instruction
system.cpu.tickCycles                       218572278                       # Number of cycles that the object actually ticked
system.cpu.workload.numSyscalls                    18                       # Number of system calls
system.membus.snoop_filter.hit_multi_requests            0                       # Number of requests hitting in the snoop filter with multiple (>1) holders of the requested data.
system.membus.snoop_filter.hit_multi_snoops            0                       # Number of snoops hitting in the snoop filter with multiple (>1) holders of the requested data.
system.membus.snoop_filter.hit_single_requests      2615691                       # Number of requests hitting in the snoop filter with a single holder of the requested data.
system.membus.snoop_filter.hit_single_snoops            0                       # Number of snoops hitting in the snoop filter with a single holder of the requested data.
system.membus.snoop_filter.tot_requests       5247886                       # Total number of requests made to the snoop filter.
system.membus.snoop_filter.tot_snoops               0                       # Total number of snoops made to the snoop filter.
system.tol2bus.snoop_filter.hit_multi_requests           64                       # Number of requests hitting in the snoop filter with multiple (>1) holders of the requested data.
system.tol2bus.snoop_filter.hit_multi_snoops            0                       # Number of snoops hitting in the snoop filter with multiple (>1) holders of the requested data.
system.tol2bus.snoop_filter.hit_single_requests      2632107                       # Number of requests hitting in the snoop filter with a single holder of the requested data.
system.tol2bus.snoop_filter.hit_single_snoops          228                       # Number of snoops hitting in the snoop filter with a single holder of the requested data.
system.tol2bus.snoop_filter.tot_requests      5264854                       # Total number of requests made to the snoop filter.
system.tol2bus.snoop_filter.tot_snoops            228                       # Total number of snoops made to the snoop filter.
system.membus.pwrStateResidencyTicks::UNDEFINED 339968117500                       # Cumulative time (in ticks) in various power states
system.membus.trans_dist::ReadResp                597                       # Transaction distribution
system.membus.trans_dist::WritebackDirty      2615244                       # Transaction distribution
system.membus.trans_dist::CleanEvict              439                       # Transaction distribution
system.membus.trans_dist::ReadExReq           2631606                       # Transaction distribution
system.membus.trans_dist::ReadExResp          2631606                       # Transaction distribution
system.membus.trans_dist::ReadSharedReq           597                       # Transaction distribution
system.membus.pkt_count_system.l2.mem_side::system.mem_ctrls.port      7880089                       # Packet count per connected master and slave (bytes)
system.membus.pkt_count::total                7880089                       # Packet count per connected master and slave (bytes)
system.membus.pkt_size_system.l2.mem_side::system.mem_ctrls.port    671673216                       # Cumulative packet size per connected master and slave (bytes)
system.membus.pkt_size::total               671673216                       # Cumulative packet size per connected master and slave (bytes)
system.membus.snoops                                0                       # Total snoops (count)
system.membus.snoopTraffic                          0                       # Total snoop traffic (bytes)
system.membus.snoop_fanout::samples           2632203                       # Request fanout histogram
system.membus.snoop_fanout::mean                    0                       # Request fanout histogram
system.membus.snoop_fanout::stdev                   0                       # Request fanout histogram
system.membus.snoop_fanout::underflows              0      0.00%      0.00% # Request fanout histogram
system.membus.snoop_fanout::0                 2632203    100.00%    100.00% # Request fanout histogram
system.membus.snoop_fanout::1                       0      0.00%    100.00% # Request fanout histogram
system.membus.snoop_fanout::overflows               0      0.00%    100.00% # Request fanout histogram
system.membus.snoop_fanout::min_value               0                       # Request fanout histogram
system.membus.snoop_fanout::max_value               0                       # Request fanout histogram
system.membus.snoop_fanout::total             2632203                       # Request fanout histogram
system.membus.respLayer1.occupancy        24388979000                       # Layer occupancy (ticks)
system.membus.respLayer1.utilization              7.2                       # Layer utilization (%)
system.membus.reqLayer0.occupancy         26170268500                       # Layer occupancy (ticks)
system.membus.reqLayer0.utilization               7.7                       # Layer utilization (%)
system.tol2bus.pwrStateResidencyTicks::UNDEFINED 339968117500                       # Cumulative time (in ticks) in various power states
system.tol2bus.trans_dist::ReadResp               967                       # Transaction distribution
system.tol2bus.trans_dist::WritebackDirty      5246543                       # Transaction distribution
system.tol2bus.trans_dist::WritebackClean          426                       # Transaction distribution
system.tol2bus.trans_dist::CleanEvict            1049                       # Transaction distribution
system.tol2bus.trans_dist::ReadExReq          2631780                       # Transaction distribution
system.tol2bus.trans_dist::ReadExResp         2631780                       # Transaction distribution
system.tol2bus.trans_dist::ReadCleanReq           554                       # Transaction distribution
system.tol2bus.trans_dist::ReadSharedReq          413                       # Transaction distribution
system.tol2bus.pkt_count_system.cpu.icache.mem_side::system.l2.cpu_side         1534                       # Packet count per connected master and slave (bytes)
system.tol2bus.pkt_count_system.cpu.dcache.mem_side::system.l2.cpu_side      7896067                       # Packet count per connected master and slave (bytes)
system.tol2bus.pkt_count::total               7897601                       # Packet count per connected master and slave (bytes)
system.tol2bus.pkt_size_system.cpu.icache.mem_side::system.l2.cpu_side       125440                       # Cumulative packet size per connected master and slave (bytes)
system.tol2bus.pkt_size_system.cpu.dcache.mem_side::system.l2.cpu_side    673726976                       # Cumulative packet size per connected master and slave (bytes)
system.tol2bus.pkt_size::total              673852416                       # Cumulative packet size per connected master and slave (bytes)
system.tol2bus.snoops                         2615911                       # Total snoops (count)
system.tol2bus.snoopTraffic                 334751232                       # Total snoop traffic (bytes)
system.tol2bus.snoop_fanout::samples          5248658                       # Request fanout histogram
system.tol2bus.snoop_fanout::mean            0.000056                       # Request fanout histogram
system.tol2bus.snoop_fanout::stdev           0.007459                       # Request fanout histogram
system.tol2bus.snoop_fanout::underflows             0      0.00%      0.00% # Request fanout histogram
system.tol2bus.snoop_fanout::0                5248366     99.99%     99.99% # Request fanout histogram
system.tol2bus.snoop_fanout::1                    292      0.01%    100.00% # Request fanout histogram
system.tol2bus.snoop_fanout::2                      0      0.00%    100.00% # Request fanout histogram
system.tol2bus.snoop_fanout::overflows              0      0.00%    100.00% # Request fanout histogram
system.tol2bus.snoop_fanout::min_value              0                       # Request fanout histogram
system.tol2bus.snoop_fanout::max_value              1                       # Request fanout histogram
system.tol2bus.snoop_fanout::total            5248658                       # Request fanout histogram
system.tol2bus.reqLayer0.occupancy         7895877000                       # Layer occupancy (ticks)
system.tol2bus.reqLayer0.utilization              2.3                       # Layer utilization (%)
system.tol2bus.respLayer1.occupancy        6580486492                       # Layer occupancy (ticks)
system.tol2bus.respLayer1.utilization             1.9                       # Layer utilization (%)
system.tol2bus.respLayer0.occupancy           1385499                       # Layer occupancy (ticks)
system.tol2bus.respLayer0.utilization             0.0                       # Layer utilization (%)
system.voltage_domain.voltage                       1                       # Voltage in Volts
system.clk_domain.clock                          1000                       # Clock period in ticks
system.l2.pwrStateResidencyTicks::UNDEFINED 339968117500                       # Cumulative time (in ticks) in various power states
system.l2.demand_hits::.cpu.inst                  153                       # number of demand (read+write) hits
system.l2.demand_hits::.cpu.data                  382                       # number of demand (read+write) hits
system.l2.demand_hits::total                      535                       # number of demand (read+write) hits
system.l2.overall_hits::.cpu.inst                 153                       # number of overall hits
system.l2.overall_hits::.cpu.data                 382                       # number of overall hits
system.l2.overall_hits::total                     535                       # number of overall hits
system.l2.demand_misses::.cpu.inst                401                       # number of demand (read+write) misses
system.l2.demand_misses::.cpu.data            2631811                       # number of demand (read+write) misses
system.l2.demand_misses::total                2632212                       # number of demand (read+write) misses
system.l2.overall_misses::.cpu.inst               401                       # number of overall misses
system.l2.overall_misses::.cpu.data           2631811                       # number of overall misses
system.l2.overall_misses::total               2632212                       # number of overall misses
system.l2.demand_miss_latency::.cpu.inst     37073500                       # number of demand (read+write) miss cycles
system.l2.demand_miss_latency::.cpu.data 241102608500                       # number of demand (read+write) miss cycles
system.l2.demand_miss_latency::total     241139682000                       # number of demand (read+write) miss cycles
system.l2.overall_miss_latency::.cpu.inst     37073500                       # number of overall miss cycles
system.l2.overall_miss_latency::.cpu.data 241102608500                       # number of overall miss cycles
system.l2.overall_miss_latency::total    241139682000                       # number of overall miss cycles
system.l2.demand_accesses::.cpu.inst              554                       # number of demand (read+write) accesses
system.l2.demand_accesses::.cpu.data          2632193                       # number of demand (read+write) accesses
system.l2.demand_accesses::total              2632747                       # number of demand (read+write) accesses
system.l2.overall_accesses::.cpu.inst             554                       # number of overall (read+write) accesses
system.l2.overall_accesses::.cpu.data         2632193                       # number of overall (read+write) accesses
system.l2.overall_accesses::total             2632747                       # number of overall (read+write) accesses
system.l2.demand_miss_rate::.cpu.inst        0.723827                       # miss rate for demand accesses
system.l2.demand_miss_rate::.cpu.data        0.999855                       # miss rate for demand accesses
system.l2.demand_miss_rate::total            0.999797                       # miss rate for demand accesses
system.l2.overall_miss_rate::.cpu.inst       0.723827                       # miss rate for overall accesses
system.l2.overall_miss_rate::.cpu.data       0.999855                       # miss rate for overall accesses
system.l2.overall_miss_rate::total           0.999797                       # miss rate for overall accesses
system.l2.demand_avg_miss_latency::.cpu.inst 92452.618454                       # average overall miss latency
system.l2.demand_avg_miss_latency::.cpu.data 91610.912980                       # average overall miss latency
system.l2.demand_avg_miss_latency::total 91611.041208                       # average overall miss latency
system.l2.overall_avg_miss_latency::.cpu.inst 92452.618454                       # average overall miss latency
system.l2.overall_avg_miss_latency::.cpu.data 91610.912980                       # average overall miss latency
system.l2.overall_avg_miss_latency::total 91611.041208                       # average overall miss latency
system.l2.blocked_cycles::no_mshrs                  0                       # number of cycles access was blocked
system.l2.blocked_cycles::no_targets                0                       # number of cycles access was blocked
system.l2.blocked::no_mshrs                         0                       # number of cycles access was blocked
system.l2.blocked::no_targets                       0                       # number of cycles access was blocked
system.l2.avg_blocked_cycles::no_mshrs            nan                       # average number of cycles each access was blocked
system.l2.avg_blocked_cycles::no_targets          nan                       # average number of cycles each access was blocked
system.l2.writebacks::.writebacks             2615244                       # number of writebacks
system.l2.writebacks::total                   2615244                       # number of writebacks
system.l2.demand_mshr_hits::.cpu.inst               1                       # number of demand (read+write) MSHR hits
system.l2.demand_mshr_hits::.cpu.data               8                       # number of demand (read+write) MSHR hits
system.l2.demand_mshr_hits::total                   9                       # number of demand (read+write) MSHR hits
system.l2.overall_mshr_hits::.cpu.inst              1                       # number of overall MSHR hits
system.l2.overall_mshr_hits::.cpu.data              8                       # number of overall MSHR hits
system.l2.overall_mshr_hits::total                  9                       # number of overall MSHR hits
system.l2.demand_mshr_misses::.cpu.inst           400                       # number of demand (read+write) MSHR misses
system.l2.demand_mshr_misses::.cpu.data       2631803                       # number of demand (read+write) MSHR misses
system.l2.demand_mshr_misses::total           2632203                       # number of demand (read+write) MSHR misses
system.l2.overall_mshr_misses::.cpu.inst          400                       # number of overall MSHR misses
system.l2.overall_mshr_misses::.cpu.data      2631803                       # number of overall MSHR misses
system.l2.overall_mshr_misses::total          2632203                       # number of overall MSHR misses
system.l2.demand_mshr_miss_latency::.cpu.inst     32999000                       # number of demand (read+write) MSHR miss cycles
system.l2.demand_mshr_miss_latency::.cpu.data 214783420000                       # number of demand (read+write) MSHR miss cycles
system.l2.demand_mshr_miss_latency::total 214816419000                       # number of demand (read+write) MSHR miss cycles
system.l2.overall_mshr_miss_latency::.cpu.inst     32999000                       # number of overall MSHR miss cycles
system.l2.overall_mshr_miss_latency::.cpu.data 214783420000                       # number of overall MSHR miss cycles
system.l2.overall_mshr_miss_latency::total 214816419000                       # number of overall MSHR miss cycles
system.l2.demand_mshr_miss_rate::.cpu.inst     0.722022                       # mshr miss rate for demand accesses
system.l2.demand_mshr_miss_rate::.cpu.data     0.999852                       # mshr miss rate for demand accesses
system.l2.demand_mshr_miss_rate::total       0.999793                       # mshr miss rate for demand accesses
system.l2.overall_mshr_miss_rate::.cpu.inst     0.722022                       # mshr miss rate for overall accesses
system.l2.overall_mshr_miss_rate::.cpu.data     0.999852                       # mshr miss rate for overall accesses
system.l2.overall_mshr_miss_rate::total      0.999793                       # mshr miss rate for overall accesses
system.l2.demand_avg_mshr_miss_latency::.cpu.inst 82497.500000                       # average overall mshr miss latency
system.l2.demand_avg_mshr_miss_latency::.cpu.data 81610.751261                       # average overall mshr miss latency
system.l2.demand_avg_mshr_miss_latency::total 81610.886014                       # average overall mshr miss latency
system.l2.overall_avg_mshr_miss_latency::.cpu.inst 82497.500000                       # average overall mshr miss latency
system.l2.overall_avg_mshr_miss_latency::.cpu.data 81610.751261                       # average overall mshr miss latency
system.l2.overall_avg_mshr_miss_latency::total 81610.886014                       # average overall mshr miss latency
system.l2.replacements                        2615911                       # number of replacements
system.l2.WritebackDirty_hits::.writebacks      2631299                       # number of WritebackDirty hits
system.l2.WritebackDirty_hits::total          2631299                       # number of WritebackDirty hits
system.l2.WritebackDirty_accesses::.writebacks      2631299                       # number of WritebackDirty accesses(hits+misses)
system.l2.WritebackDirty_accesses::total      2631299                       # number of WritebackDirty accesses(hits+misses)
system.l2.WritebackClean_hits::.writebacks          407                       # number of WritebackClean hits
system.l2.WritebackClean_hits::total              407                       # number of WritebackClean hits
system.l2.WritebackClean_accesses::.writebacks          407                       # number of WritebackClean accesses(hits+misses)
system.l2.WritebackClean_accesses::total          407                       # number of WritebackClean accesses(hits+misses)
system.l2.ReadExReq_hits::.cpu.data               174                       # number of ReadExReq hits
system.l2.ReadExReq_hits::total                   174                       # number of ReadExReq hits
system.l2.ReadExReq_misses::.cpu.data         2631606                       # number of ReadExReq misses
system.l2.ReadExReq_misses::total             2631606                       # number of ReadExReq misses
system.l2.ReadExReq_miss_latency::.cpu.data 241081981000                       # number of ReadExReq miss cycles
system.l2.ReadExReq_miss_latency::total  241081981000                       # number of ReadExReq miss cycles
system.l2.ReadExReq_accesses::.cpu.data       2631780                       # number of ReadExReq accesses(hits+misses)
system.l2.ReadExReq_accesses::total           2631780                       # number of ReadExReq accesses(hits+misses)
system.l2.ReadExReq_miss_rate::.cpu.data     0.999934                       # miss rate for ReadExReq accesses
system.l2.ReadExReq_miss_rate::total         0.999934                       # miss rate for ReadExReq accesses
system.l2.ReadExReq_avg_miss_latency::.cpu.data 91610.211027                       # average ReadExReq miss latency
system.l2.ReadExReq_avg_miss_latency::total 91610.211027                       # average ReadExReq miss latency
system.l2.ReadExReq_mshr_misses::.cpu.data      2631606                       # number of ReadExReq MSHR misses
system.l2.ReadExReq_mshr_misses::total        2631606                       # number of ReadExReq MSHR misses
system.l2.ReadExReq_mshr_miss_latency::.cpu.data 214765921000                       # number of ReadExReq MSHR miss cycles
system.l2.ReadExReq_mshr_miss_latency::total 214765921000                       # number of ReadExReq MSHR miss cycles
system.l2.ReadExReq_mshr_miss_rate::.cpu.data     0.999934                       # mshr miss rate for ReadExReq accesses
system.l2.ReadExReq_mshr_miss_rate::total     0.999934                       # mshr miss rate for ReadExReq accesses
system.l2.ReadExReq_avg_mshr_miss_latency::.cpu.data 81610.211027                       # average ReadExReq mshr miss latency
system.l2.ReadExReq_avg_mshr_miss_latency::total 81610.211027                       # average ReadExReq mshr miss latency
system.l2.ReadCleanReq_hits::.cpu.inst            153                       # number of ReadCleanReq hits
system.l2.ReadCleanReq_hits::total                153                       # number of ReadCleanReq hits
system.l2.ReadCleanReq_misses::.cpu.inst          401                       # number of ReadCleanReq misses
system.l2.ReadCleanReq_misses::total              401                       # number of ReadCleanReq misses
system.l2.ReadCleanReq_miss_latency::.cpu.inst     37073500                       # number of ReadCleanReq miss cycles
system.l2.ReadCleanReq_miss_latency::total     37073500                       # number of ReadCleanReq miss cycles
system.l2.ReadCleanReq_accesses::.cpu.inst          554                       # number of ReadCleanReq accesses(hits+misses)
system.l2.ReadCleanReq_accesses::total            554                       # number of ReadCleanReq accesses(hits+misses)
system.l2.ReadCleanReq_miss_rate::.cpu.inst     0.723827                       # miss rate for ReadCleanReq accesses
system.l2.ReadCleanReq_miss_rate::total      0.723827                       # miss rate for ReadCleanReq accesses
system.l2.ReadCleanReq_avg_miss_latency::.cpu.inst 92452.618454                       # average ReadCleanReq miss latency
system.l2.ReadCleanReq_avg_miss_latency::total 92452.618454                       # average ReadCleanReq miss latency
system.l2.ReadCleanReq_mshr_hits::.cpu.inst            1                       # number of ReadCleanReq MSHR hits
system.l2.ReadCleanReq_mshr_hits::total             1                       # number of ReadCleanReq MSHR hits
system.l2.ReadCleanReq_mshr_misses::.cpu.inst          400                       # number of ReadCleanReq MSHR misses
system.l2.ReadCleanReq_mshr_misses::total          400                       # number of ReadCleanReq MSHR misses
system.l2.ReadCleanReq_mshr_miss_latency::.cpu.inst     32999000                       # number of ReadCleanReq MSHR miss cycles
system.l2.ReadCleanReq_mshr_miss_latency::total     32999000                       # number of ReadCleanReq MSHR miss cycles
system.l2.ReadCleanReq_mshr_miss_rate::.cpu.inst     0.722022                       # mshr miss rate for ReadCleanReq accesses
system.l2.ReadCleanReq_mshr_miss_rate::total     0.722022                       # mshr miss rate for ReadCleanReq accesses
system.l2.ReadCleanReq_avg_mshr_miss_latency::.cpu.inst 82497.500000                       # average ReadCleanReq mshr miss latency
system.l2.ReadCleanReq_avg_mshr_miss_latency::total 82497.500000                       # average ReadCleanReq mshr miss latency
system.l2.ReadSharedReq_hits::.cpu.data           208                       # number of ReadSharedReq hits
system.l2.ReadSharedReq_hits::total               208                       # number of ReadSharedReq hits
system.l2.ReadSharedReq_misses::.cpu.data          205                       # number of ReadSharedReq misses
system.l2.ReadSharedReq_misses::total             205                       # number of ReadSharedReq misses
system.l2.ReadSharedReq_miss_latency::.cpu.data     20627500                       # number of ReadSharedReq miss cycles
system.l2.ReadSharedReq_miss_latency::total     20627500                       # number of ReadSharedReq miss cycles
system.l2.ReadSharedReq_accesses::.cpu.data          413                       # number of ReadSharedReq accesses(hits+misses)
system.l2.ReadSharedReq_accesses::total           413                       # number of ReadSharedReq accesses(hits+misses)
system.l2.ReadSharedReq_miss_rate::.cpu.data     0.496368                       # miss rate for ReadSharedReq accesses
system.l2.ReadSharedReq_miss_rate::total     0.496368                       # miss rate for ReadSharedReq accesses
system.l2.ReadSharedReq_avg_miss_latency::.cpu.data 100621.951220                       # average ReadSharedReq miss latency
system.l2.ReadSharedReq_avg_miss_latency::total 100621.951220                       # average ReadSharedReq miss latency
system.l2.ReadSharedReq_mshr_hits::.cpu.data            8                       # number of ReadSharedReq MSHR hits
system.l2.ReadSharedReq_mshr_hits::total            8                       # number of ReadSharedReq MSHR hits
system.l2.ReadSharedReq_mshr_misses::.cpu.data          197                       # number of ReadSharedReq MSHR misses
system.l2.ReadSharedReq_mshr_misses::total          197                       # number of ReadSharedReq MSHR misses
system.l2.ReadSharedReq_mshr_miss_latency::.cpu.data     17499000                       # number of ReadSharedReq MSHR miss cycles
system.l2.ReadSharedReq_mshr_miss_latency::total     17499000                       # number of ReadSharedReq MSHR miss cycles
system.l2.ReadSharedReq_mshr_miss_rate::.cpu.data     0.476998                       # mshr miss rate for ReadSharedReq accesses
system.l2.ReadSharedReq_mshr_miss_rate::total     0.476998                       # mshr miss rate for ReadSharedReq accesses
system.l2.ReadSharedReq_avg_mshr_miss_latency::.cpu.data 88827.411168                       # average ReadSharedReq mshr miss latency
system.l2.ReadSharedReq_avg_mshr_miss_latency::total 88827.411168                       # average ReadSharedReq mshr miss latency
system.l2.tags.pwrStateResidencyTicks::UNDEFINED 339968117500                       # Cumulative time (in ticks) in various power states
system.l2.tags.tagsinuse                 16215.013740                       # Cycle average of tags in use
system.l2.tags.total_refs                     5264781                       # Total number of references to valid blocks.
system.l2.tags.sampled_refs                   2632295                       # Sample count of references to valid blocks.
system.l2.tags.avg_refs                      2.000073                       # Average number of references to valid blocks.
system.l2.tags.warmup_cycle                     82000                       # Cycle when the warmup percentage was hit.
system.l2.tags.occ_blocks::.writebacks       0.517387                       # Average occupied blocks per requestor
system.l2.tags.occ_blocks::.cpu.inst         4.159146                       # Average occupied blocks per requestor
system.l2.tags.occ_blocks::.cpu.data     16210.337206                       # Average occupied blocks per requestor
system.l2.tags.occ_percent::.writebacks      0.000032                       # Average percentage of cache occupancy
system.l2.tags.occ_percent::.cpu.inst        0.000254                       # Average percentage of cache occupancy
system.l2.tags.occ_percent::.cpu.data        0.989400                       # Average percentage of cache occupancy
system.l2.tags.occ_percent::total            0.989686                       # Average percentage of cache occupancy
system.l2.tags.occ_task_id_blocks::1024         16384                       # Occupied blocks per task id
system.l2.tags.age_task_id_blocks_1024::0           79                       # Occupied blocks per task id
system.l2.tags.age_task_id_blocks_1024::1          700                       # Occupied blocks per task id
system.l2.tags.age_task_id_blocks_1024::2         7024                       # Occupied blocks per task id
system.l2.tags.age_task_id_blocks_1024::3         8581                       # Occupied blocks per task id
system.l2.tags.occ_task_id_percent::1024            1                       # Percentage of cache occupancy per task id
system.l2.tags.tag_accesses                  44750615                       # Number of tag accesses
system.l2.tags.data_accesses                 44750615                       # Number of data accesses
system.cpu_voltage_domain.voltage                   1                       # Voltage in Volts
system.mem_ctrls.pwrStateResidencyTicks::UNDEFINED 339968117500                       # Cumulative time (in ticks) in various power states
system.mem_ctrls.bytes_read::.cpu.inst          51200                       # Number of bytes read from this memory
system.mem_ctrls.bytes_read::.cpu.data      336870784                       # Number of bytes read from this memory
system.mem_ctrls.bytes_read::total          336921984                       # Number of bytes read from this memory
system.mem_ctrls.bytes_inst_read::.cpu.inst        51200                       # Number of instructions bytes read from this memory
system.mem_ctrls.bytes_inst_read::total         51200                       # Number of instructions bytes read from this memory
system.mem_ctrls.bytes_written::.writebacks    334751232                       # Number of bytes written to this memory
system.mem_ctrls.bytes_written::total       334751232                       # Number of bytes written to this memory
system.mem_ctrls.num_reads::.cpu.inst             400                       # Number of read requests responded to by this memory
system.mem_ctrls.num_reads::.cpu.data         2631803                       # Number of read requests responded to by this memory
system.mem_ctrls.num_reads::total             2632203                       # Number of read requests responded to by this memory
system.mem_ctrls.num_writes::.writebacks      2615244                       # Number of write requests responded to by this memory
system.mem_ctrls.num_writes::total            2615244                       # Number of write requests responded to by this memory
system.mem_ctrls.bw_read::.cpu.inst            150602                       # Total read bandwidth from this memory (bytes/s)
system.mem_ctrls.bw_read::.cpu.data         990889341                       # Total read bandwidth from this memory (bytes/s)
system.mem_ctrls.bw_read::total             991039944                       # Total read bandwidth from this memory (bytes/s)
system.mem_ctrls.bw_inst_read::.cpu.inst       150602                       # Instruction read bandwidth from this memory (bytes/s)
system.mem_ctrls.bw_inst_read::total           150602                       # Instruction read bandwidth from this memory (bytes/s)
system.mem_ctrls.bw_write::.writebacks      984654780                       # Write bandwidth from this memory (bytes/s)
system.mem_ctrls.bw_write::total            984654780                       # Write bandwidth from this memory (bytes/s)
system.mem_ctrls.bw_total::.writebacks      984654780                       # Total bandwidth to/from this memory (bytes/s)
system.mem_ctrls.bw_total::.cpu.inst           150602                       # Total bandwidth to/from this memory (bytes/s)
system.mem_ctrls.bw_total::.cpu.data        990889341                       # Total bandwidth to/from this memory (bytes/s)
system.mem_ctrls.bw_total::total           1975694724                       # Total bandwidth to/from this memory (bytes/s)
system.mem_ctrls.avgPriority_.writebacks::samples   5230488.00                       # Average QoS priority value for accepted requests
system.mem_ctrls.avgPriority_.cpu.inst::samples       800.00                       # Average QoS priority value for accepted requests
system.mem_ctrls.avgPriority_.cpu.data::samples   5263606.00                       # Average QoS priority value for accepted requests
system.mem_ctrls.priorityMinLatency      0.000000018750                       # per QoS priority minimum request to response latency (s)
system.mem_ctrls.priorityMaxLatency      0.000468767500                       # per QoS priority maximum request to response latency (s)
system.mem_ctrls.numReadWriteTurnArounds       326887                       # Number of turnarounds from READ to WRITE
system.mem_ctrls.numWriteReadTurnArounds       326887                       # Number of turnarounds from WRITE to READ
system.mem_ctrls.numStayReadState            10263393                       # Number of times bus staying in READ state
system.mem_ctrls.numStayWriteState            4916607                       # Number of times bus staying in WRITE state
system.mem_ctrls.readReqs                     2632203                       # Number of read requests accepted
system.mem_ctrls.writeReqs                    2615244                       # Number of write requests accepted
system.mem_ctrls.readBursts                   5264406                       # Number of DRAM read bursts, including those serviced by the write queue
system.mem_ctrls.writeBursts                  5230488                       # Number of DRAM write bursts, including those merged in the write queue
system.mem_ctrls.servicedByWrQ                      0                       # Number of DRAM read bursts serviced by the write queue
system.mem_ctrls.mergedWrBursts                     0                       # Number of DRAM write bursts merged with an existing one
system.mem_ctrls.neitherReadNorWriteReqs            0                       # Number of requests that are neither read nor write
system.mem_ctrls.perBankRdBursts::0            329086                       # Per bank write bursts
system.mem_ctrls.perBankRdBursts::1            329100                       # Per bank write bursts
system.mem_ctrls.perBankRdBursts::2            329140                       # Per bank write bursts
system.mem_ctrls.perBankRdBursts::3            329100                       # Per bank write bursts
system.mem_ctrls.perBankRdBursts::4            329036                       # Per bank write bursts
system.mem_ctrls.perBankRdBursts::5            329094                       # Per bank write bursts
system.mem_ctrls.perBankRdBursts::6            329110                       # Per bank write bursts
system.mem_ctrls.perBankRdBursts::7            328954                       # Per bank write bursts
system.mem_ctrls.perBankRdBursts::8            328914                       # Per bank write bursts
system.mem_ctrls.perBankRdBursts::9            328892                       # Per bank write bursts
system.mem_ctrls.perBankRdBursts::10           328856                       # Per bank write bursts
system.mem_ctrls.perBankRdBursts::11           329080                       # Per bank write bursts
system.mem_ctrls.perBankRdBursts::12           329058                       # Per bank write bursts
system.mem_ctrls.perBankRdBursts::13           329054                       # Per bank write bursts
system.mem_ctrls.perBankRdBursts::14           329036                       # Per bank write bursts
system.mem_ctrls.perBankRdBursts::15           328896                       # Per bank write bursts
system.mem_ctrls.perBankWrBursts::0            326870                       # Per bank write bursts
system.mem_ctrls.perBankWrBursts::1            326937                       # Per bank write bursts
system.mem_ctrls.perBankWrBursts::2            327034                       # Per bank write bursts
system.mem_ctrls.perBankWrBursts::3            327010                       # Per bank write bursts
system.mem_ctrls.perBankWrBursts::4            326978                       # Per bank write bursts
system.mem_ctrls.perBankWrBursts::5            326986                       # Per bank write bursts
system.mem_ctrls.perBankWrBursts::6            326998                       # Per bank write bursts
system.mem_ctrls.perBankWrBursts::7            326880                       # Per bank write bursts
system.mem_ctrls.perBankWrBursts::8            326784                       # Per bank write bursts
system.mem_ctrls.perBankWrBursts::9            326784                       # Per bank write bursts
system.mem_ctrls.perBankWrBursts::10           326716                       # Per bank write bursts
system.mem_ctrls.perBankWrBursts::11           326944                       # Per bank write bursts
system.mem_ctrls.perBankWrBursts::12           326942                       # Per bank write bursts
system.mem_ctrls.perBankWrBursts::13           326924                       # Per bank write bursts
system.mem_ctrls.perBankWrBursts::14           326866                       # Per bank write bursts
system.mem_ctrls.perBankWrBursts::15           326810                       # Per bank write bursts
system.mem_ctrls.avgRdQLen                       2.02                       # Average read queue length when enqueuing
system.mem_ctrls.avgWrQLen                      26.34                       # Average write queue length when enqueuing
system.mem_ctrls.totQLat                 102720827250                       # Total ticks spent queuing
system.mem_ctrls.totBusLat                26322030000                       # Total ticks spent in databus transfers
system.mem_ctrls.totMemAccLat            201428439750                       # Total ticks spent from burst creation until serviced by the DRAM
system.mem_ctrls.avgQLat                     19512.33                       # Average queueing delay per DRAM burst
system.mem_ctrls.avgBusLat                    5000.00                       # Average bus latency per DRAM burst
system.mem_ctrls.avgMemAccLat                38262.33                       # Average memory access latency per DRAM burst
system.mem_ctrls.numRdRetry                         0                       # Number of times read queue was full causing retry
system.mem_ctrls.numWrRetry                         0                       # Number of times write queue was full causing retry
system.mem_ctrls.readRowHits                  4857881                       # Number of row buffer hits during reads
system.mem_ctrls.writeRowHits                 4857454                       # Number of row buffer hits during writes
system.mem_ctrls.readRowHitRate                 92.28                       # Row buffer hit rate for reads
system.mem_ctrls.writeRowHitRate                92.87                       # Row buffer hit rate for writes
system.mem_ctrls.readPktSize::0                     0                       # Read request sizes (log2)
system.mem_ctrls.readPktSize::1                     0                       # Read request sizes (log2)
system.mem_ctrls.readPktSize::2                     0                       # Read request sizes (log2)
system.mem_ctrls.readPktSize::3                     0                       # Read request sizes (log2)
system.mem_ctrls.readPktSize::4                     0                       # Read request sizes (log2)
system.mem_ctrls.readPktSize::5                     0                       # Read request sizes (log2)
system.mem_ctrls.readPktSize::6               5264406                       # Read request sizes (log2)
system.mem_ctrls.writePktSize::0                    0                       # Write request sizes (log2)
system.mem_ctrls.writePktSize::1                    0                       # Write request sizes (log2)
system.mem_ctrls.writePktSize::2                    0                       # Write request sizes (log2)
system.mem_ctrls.writePktSize::3                    0                       # Write request sizes (log2)
system.mem_ctrls.writePktSize::4                    0                       # Write request sizes (log2)
system.mem_ctrls.writePktSize::5                    0                       # Write request sizes (log2)
system.mem_ctrls.writePktSize::6              5230488                       # Write request sizes (log2)
system.mem_ctrls.rdQLenPdf::0                 2631659                       # What read queue length does an incoming req see
system.mem_ctrls.rdQLenPdf::1                 2631662                       # What read queue length does an incoming req see
system.mem_ctrls.rdQLenPdf::2                     531                       # What read queue length does an incoming req see
system.mem_ctrls.rdQLenPdf::3                     529                       # What read queue length does an incoming req see
system.mem_ctrls.rdQLenPdf::4                      13                       # What read queue length does an incoming req see
system.mem_ctrls.rdQLenPdf::5                      12                       # What read queue length does an incoming req see
system.mem_ctrls.rdQLenPdf::6                       0                       # What read queue length does an incoming req see
system.mem_ctrls.rdQLenPdf::7                       0                       # What read queue length does an incoming req see
system.mem_ctrls.rdQLenPdf::8                       0                       # What read queue length does an incoming req see
system.mem_ctrls.rdQLenPdf::9                       0                       # What read queue length does an incoming req see
system.mem_ctrls.rdQLenPdf::10                      0                       # What read queue length does an incoming req see
system.mem_ctrls.rdQLenPdf::11                      0                       # What read queue length does an incoming req see
system.mem_ctrls.rdQLenPdf::12                      0                       # What read queue length does an incoming req see
system.mem_ctrls.rdQLenPdf::13                      0                       # What read queue length does an incoming req see
system.mem_ctrls.rdQLenPdf::14                      0                       # What read queue length does an incoming req see
system.mem_ctrls.rdQLenPdf::15                      0                       # What read queue length does an incoming req see
system.mem_ctrls.rdQLenPdf::16                      0                       # What read queue length does an incoming req see
system.mem_ctrls.rdQLenPdf::17                      0                       # What read queue length does an incoming req see
system.mem_ctrls.rdQLenPdf::18                      0                       # What read queue length does an incoming req see
system.mem_ctrls.rdQLenPdf::19                      0                       # What read queue length does an incoming req see
system.mem_ctrls.rdQLenPdf::20                      0                       # What read queue length does an incoming req see
system.mem_ctrls.rdQLenPdf::21                      0                       # What read queue length does an incoming req see
system.mem_ctrls.rdQLenPdf::22                      0                       # What read queue length does an incoming req see
system.mem_ctrls.rdQLenPdf::23                      0                       # What read queue length does an incoming req see
system.mem_ctrls.rdQLenPdf::24                      0                       # What read queue length does an incoming req see
system.mem_ctrls.rdQLenPdf::25                      0                       # What read queue length does an incoming req see
system.mem_ctrls.rdQLenPdf::26                      0                       # What read queue length does an incoming req see
system.mem_ctrls.rdQLenPdf::27                      0                       # What read queue length does an incoming req see
system.mem_ctrls.rdQLenPdf::28                      0                       # What read queue length does an incoming req see
system.mem_ctrls.rdQLenPdf::29                      0                       # What read queue length does an incoming req see
system.mem_ctrls.rdQLenPdf::30                      0                       # What read queue length does an incoming req see
system.mem_ctrls.rdQLenPdf::31                      0                       # What read queue length does an incoming req see
system.mem_ctrls.wrQLenPdf::0                       1                       # What write queue length does an incoming req see
system.mem_ctrls.wrQLenPdf::1                       1                       # What write queue length does an incoming req see
system.mem_ctrls.wrQLenPdf::2                       1                       # What write queue length does an incoming req see
system.mem_ctrls.wrQLenPdf::3                       1                       # What write queue length does an incoming req see
system.mem_ctrls.wrQLenPdf::4                       1                       # What write queue length does an incoming req see
system.mem_ctrls.wrQLenPdf::5                       1                       # What write queue length does an incoming req see
system.mem_ctrls.wrQLenPdf::6                       1                       # What write queue length does an incoming req see
system.mem_ctrls.wrQLenPdf::7                       1                       # What write queue length does an incoming req see
system.mem_ctrls.wrQLenPdf::8                       1                       # What write queue length does an incoming req see
system.mem_ctrls.wrQLenPdf::9                       1                       # What write queue length does an incoming req see
system.mem_ctrls.wrQLenPdf::10                      1                       # What write queue length does an incoming req see
system.mem_ctrls.wrQLenPdf::11                      1                       # What write queue length does an incoming req see
system.mem_ctrls.wrQLenPdf::12                      1                       # What write queue length does an incoming req see
system.mem_ctrls.wrQLenPdf::13                      1                       # What write queue length does an incoming req see
system.mem_ctrls.wrQLenPdf::14                      1                       # What write queue length does an incoming req see
system.mem_ctrls.wrQLenPdf::15                     29                       # What write queue length does an incoming req see
system.mem_ctrls.wrQLenPdf::16                     32                       # What write queue length does an incoming req see
system.mem_ctrls.wrQLenPdf::17                 326607                       # What write queue length does an incoming req see
system.mem_ctrls.wrQLenPdf::18                 326886                       # What write queue length does an incoming req see
system.mem_ctrls.wrQLenPdf::19                 326886                       # What write queue length does an incoming req see
system.mem_ctrls.wrQLenPdf::20                 326887                       # What write queue length does an incoming req see
system.mem_ctrls.wrQLenPdf::21                 326889                       # What write queue length does an incoming req see
system.mem_ctrls.wrQLenPdf::22                 326890                       # What write queue length does an incoming req see
system.mem_ctrls.wrQLenPdf::23                 326896                       # What write queue length does an incoming req see
system.mem_ctrls.wrQLenPdf::24                 326974                       # What write queue length does an incoming req see
system.mem_ctrls.wrQLenPdf::25                 326969                       # What write queue length does an incoming req see
system.mem_ctrls.wrQLenPdf::26                 326895                       # What write queue length does an incoming req see
system.mem_ctrls.wrQLenPdf::27                 326894                       # What write queue length does an incoming req see
system.mem_ctrls.wrQLenPdf::28                 326891                       # What write queue length does an incoming req see
system.mem_ctrls.wrQLenPdf::29                 326890                       # What write queue length does an incoming req see
system.mem_ctrls.wrQLenPdf::30                 326892                       # What write queue length does an incoming req see
system.mem_ctrls.wrQLenPdf::31                 326891                       # What write queue length does an incoming req see
system.mem_ctrls.wrQLenPdf::32                 326888                       # What write queue length does an incoming req see
system.mem_ctrls.wrQLenPdf::33                    286                       # What write queue length does an incoming req see
system.mem_ctrls.wrQLenPdf::34                      1                       # What write queue length does an incoming req see
system.mem_ctrls.wrQLenPdf::35                      0                       # What write queue length does an incoming req see
system.mem_ctrls.wrQLenPdf::36                      0                       # What write queue length does an incoming req see
system.mem_ctrls.wrQLenPdf::37                      0                       # What write queue length does an incoming req see
system.mem_ctrls.wrQLenPdf::38                      0                       # What write queue length does an incoming req see
system.mem_ctrls.wrQLenPdf::39                      0                       # What write queue length does an incoming req see
system.mem_ctrls.wrQLenPdf::40                      0                       # What write queue length does an incoming req see
system.mem_ctrls.wrQLenPdf::41                      0                       # What write queue length does an incoming req see
system.mem_ctrls.wrQLenPdf::42                      0                       # What write queue length does an incoming req see
system.mem_ctrls.wrQLenPdf::43                      0                       # What write queue length does an incoming req see
system.mem_ctrls.wrQLenPdf::44                      0                       # What write queue length does an incoming req see
system.mem_ctrls.wrQLenPdf::45                      0                       # What write queue length does an incoming req see
system.mem_ctrls.wrQLenPdf::46                      0                       # What write queue length does an incoming req see
system.mem_ctrls.wrQLenPdf::47                      0                       # What write queue length does an incoming req see
system.mem_ctrls.wrQLenPdf::48                      0                       # What write queue length does an incoming req see
system.mem_ctrls.wrQLenPdf::49                      0                       # What write queue length does an incoming req see
system.mem_ctrls.wrQLenPdf::50                      0                       # What write queue length does an incoming req see
system.mem_ctrls.wrQLenPdf::51                      0                       # What write queue length does an incoming req see
system.mem_ctrls.wrQLenPdf::52                      0                       # What write queue length does an incoming req see
system.mem_ctrls.wrQLenPdf::53                      0                       # What write queue length does an incoming req see
system.mem_ctrls.wrQLenPdf::54                      0                       # What write queue length does an incoming req see
system.mem_ctrls.wrQLenPdf::55                      0                       # What write queue length does an incoming req see
system.mem_ctrls.wrQLenPdf::56                      0                       # What write queue length does an incoming req see
system.mem_ctrls.wrQLenPdf::57                      0                       # What write queue length does an incoming req see
system.mem_ctrls.wrQLenPdf::58                      0                       # What write queue length does an incoming req see
system.mem_ctrls.wrQLenPdf::59                      0                       # What write queue length does an incoming req see
system.mem_ctrls.wrQLenPdf::60                      0                       # What write queue length does an incoming req see
system.mem_ctrls.wrQLenPdf::61                      0                       # What write queue length does an incoming req see
system.mem_ctrls.wrQLenPdf::62                      0                       # What write queue length does an incoming req see
system.mem_ctrls.wrQLenPdf::63                      0                       # What write queue length does an incoming req see
system.mem_ctrls.bytesPerActivate::samples       779532                       # Bytes accessed per row activation
system.mem_ctrls.bytesPerActivate::mean    861.633534                       # Bytes accessed per row activation
system.mem_ctrls.bytesPerActivate::gmean   751.100210                       # Bytes accessed per row activation
system.mem_ctrls.bytesPerActivate::stdev   301.938306                       # Bytes accessed per row activation
system.mem_ctrls.bytesPerActivate::0-127         3387      0.43%      0.43% # Bytes accessed per row activation
system.mem_ctrls.bytesPerActivate::128-255        88055     11.30%     11.73% # Bytes accessed per row activation
system.mem_ctrls.bytesPerActivate::256-383        13297      1.71%     13.44% # Bytes accessed per row activation
system.mem_ctrls.bytesPerActivate::384-511        16338      2.10%     15.53% # Bytes accessed per row activation
system.mem_ctrls.bytesPerActivate::512-639        12079      1.55%     17.08% # Bytes accessed per row activation
system.mem_ctrls.bytesPerActivate::640-767        13753      1.76%     18.85% # Bytes accessed per row activation
system.mem_ctrls.bytesPerActivate::768-895        47419      6.08%     24.93% # Bytes accessed per row activation
system.mem_ctrls.bytesPerActivate::896-1023        41981      5.39%     30.31% # Bytes accessed per row activation
system.mem_ctrls.bytesPerActivate::1024-1151       543223     69.69%    100.00% # Bytes accessed per row activation
system.mem_ctrls.bytesPerActivate::total       779532                       # Bytes accessed per row activation
system.mem_ctrls.rdPerTurnAround::samples       326887                       # Reads before turning the bus around for writes
system.mem_ctrls.rdPerTurnAround::mean      16.104642                       # Reads before turning the bus around for writes
system.mem_ctrls.rdPerTurnAround::gmean     16.005109                       # Reads before turning the bus around for writes
system.mem_ctrls.rdPerTurnAround::stdev     50.159868                       # Reads before turning the bus around for writes
system.mem_ctrls.rdPerTurnAround::0-1023       326886    100.00%    100.00% # Reads before turning the bus around for writes
system.mem_ctrls.rdPerTurnAround::27648-28671            1      0.00%    100.00% # Reads before turning the bus around for writes
system.mem_ctrls.rdPerTurnAround::total        326887                       # Reads before turning the bus around for writes
system.mem_ctrls.wrPerTurnAround::samples       326887                       # Writes before turning the bus around for reads
system.mem_ctrls.wrPerTurnAround::mean      16.000829                       # Writes before turning the bus around for reads
system.mem_ctrls.wrPerTurnAround::gmean     16.000762                       # Writes before turning the bus around for reads
[...]
system.cpu.icache.ReadReq_miss_rate::.cpu.inst     0.000017                       # miss rate for ReadReq accesses
system.cpu.icache.ReadReq_miss_rate::total     0.000017                       # miss rate for ReadReq accesses
system.cpu.icache.ReadReq_avg_miss_latency::.cpu.inst 72647.111913                       # average ReadReq miss latency
system.cpu.icache.ReadReq_avg_miss_latency::total 72647.111913                       # average ReadReq miss latency
system.cpu.icache.ReadReq_mshr_misses::.cpu.inst          554                       # number of ReadReq MSHR misses
system.cpu.icache.ReadReq_mshr_misses::total          554                       # number of ReadReq MSHR misses
system.cpu.icache.ReadReq_mshr_miss_latency::.cpu.inst     39692500                       # number of ReadReq MSHR miss cycles
system.cpu.icache.ReadReq_mshr_miss_latency::total     39692500                       # number of ReadReq MSHR miss cycles
system.cpu.icache.ReadReq_mshr_miss_rate::.cpu.inst     0.000017                       # mshr miss rate for ReadReq accesses
system.cpu.icache.ReadReq_mshr_miss_rate::total     0.000017                       # mshr miss rate for ReadReq accesses
system.cpu.icache.ReadReq_avg_mshr_miss_latency::.cpu.inst 71647.111913                       # average ReadReq mshr miss latency
system.cpu.icache.ReadReq_avg_mshr_miss_latency::total 71647.111913                       # average ReadReq mshr miss latency
system.cpu.icache.tags.pwrStateResidencyTicks::UNDEFINED 339968117500                       # Cumulative time (in ticks) in various power states
system.cpu.icache.tags.tagsinuse           125.861070                       # Cycle average of tags in use
system.cpu.icache.tags.total_refs            31780280                       # Total number of references to valid blocks.
system.cpu.icache.tags.sampled_refs               554                       # Sample count of references to valid blocks.
system.cpu.icache.tags.avg_refs          57365.126354                       # Average number of references to valid blocks.
system.cpu.icache.tags.warmup_cycle             92500                       # Cycle when the warmup percentage was hit.
system.cpu.icache.tags.occ_blocks::.cpu.inst   125.861070                       # Average occupied blocks per requestor
system.cpu.icache.tags.occ_percent::.cpu.inst     0.983290                       # Average percentage of cache occupancy
system.cpu.icache.tags.occ_percent::total     0.983290                       # Average percentage of cache occupancy
system.cpu.icache.tags.occ_task_id_blocks::1024          128                       # Occupied blocks per task id
system.cpu.icache.tags.age_task_id_blocks_1024::4          128                       # Occupied blocks per task id
system.cpu.icache.tags.occ_task_id_percent::1024            1                       # Percentage of cache occupancy per task id
system.cpu.icache.tags.tag_accesses          63561114                       # Number of tag accesses
system.cpu.icache.tags.data_accesses         63561114                       # Number of data accesses
system.cpu.dtb.walker.pwrStateResidencyTicks::UNDEFINED 339968117500                       # Cumulative time (in ticks) in various power states
system.cpu.dtb.stage2_mmu.stage2_tlb.walker.pwrStateResidencyTicks::UNDEFINED 339968117500                       # Cumulative time (in ticks) in various power states
system.cpu.dcache.pwrStateResidencyTicks::UNDEFINED 339968117500                       # Cumulative time (in ticks) in various power states
system.cpu.dcache.demand_hits::.cpu.data     81118278                       # number of demand (read+write) hits
system.cpu.dcache.demand_hits::total         81118278                       # number of demand (read+write) hits
system.cpu.dcache.overall_hits::.cpu.data     81118320                       # number of overall hits
system.cpu.dcache.overall_hits::total        81118320                       # number of overall hits
system.cpu.dcache.demand_misses::.cpu.data      5262423                       # number of demand (read+write) misses
system.cpu.dcache.demand_misses::total        5262423                       # number of demand (read+write) misses
system.cpu.dcache.overall_misses::.cpu.data      5262452                       # number of overall misses
system.cpu.dcache.overall_misses::total       5262452                       # number of overall misses
system.cpu.dcache.demand_miss_latency::.cpu.data 499163738500                       # number of demand (read+write) miss cycles
system.cpu.dcache.demand_miss_latency::total 499163738500                       # number of demand (read+write) miss cycles
system.cpu.dcache.overall_miss_latency::.cpu.data 499163738500                       # number of overall miss cycles
system.cpu.dcache.overall_miss_latency::total 499163738500                       # number of overall miss cycles
system.cpu.dcache.demand_accesses::.cpu.data     86380701                       # number of demand (read+write) accesses
system.cpu.dcache.demand_accesses::total     86380701                       # number of demand (read+write) accesses
system.cpu.dcache.overall_accesses::.cpu.data     86380772                       # number of overall (read+write) accesses
system.cpu.dcache.overall_accesses::total     86380772                       # number of overall (read+write) accesses
system.cpu.dcache.demand_miss_rate::.cpu.data     0.060921                       # miss rate for demand accesses
system.cpu.dcache.demand_miss_rate::total     0.060921                       # miss rate for demand accesses
system.cpu.dcache.overall_miss_rate::.cpu.data     0.060922                       # miss rate for overall accesses
system.cpu.dcache.overall_miss_rate::total     0.060922                       # miss rate for overall accesses
system.cpu.dcache.demand_avg_miss_latency::.cpu.data 94854.354829                       # average overall miss latency
system.cpu.dcache.demand_avg_miss_latency::total 94854.354829                       # average overall miss latency
system.cpu.dcache.overall_avg_miss_latency::.cpu.data 94853.832111                       # average overall miss latency
system.cpu.dcache.overall_avg_miss_latency::total 94853.832111                       # average overall miss latency
system.cpu.dcache.blocked_cycles::no_mshrs            0                       # number of cycles access was blocked
system.cpu.dcache.blocked_cycles::no_targets            0                       # number of cycles access was blocked
system.cpu.dcache.blocked::no_mshrs                 0                       # number of cycles access was blocked
system.cpu.dcache.blocked::no_targets               0                       # number of cycles access was blocked
system.cpu.dcache.avg_blocked_cycles::no_mshrs          nan                       # average number of cycles each access was blocked
system.cpu.dcache.avg_blocked_cycles::no_targets          nan                       # average number of cycles each access was blocked
system.cpu.dcache.writebacks::.writebacks      2631299                       # number of writebacks
system.cpu.dcache.writebacks::total           2631299                       # number of writebacks
system.cpu.dcache.demand_mshr_hits::.cpu.data      2630248                       # number of demand (read+write) MSHR hits
system.cpu.dcache.demand_mshr_hits::total      2630248                       # number of demand (read+write) MSHR hits
system.cpu.dcache.overall_mshr_hits::.cpu.data      2630248                       # number of overall MSHR hits
system.cpu.dcache.overall_mshr_hits::total      2630248                       # number of overall MSHR hits
system.cpu.dcache.demand_mshr_misses::.cpu.data      2632175                       # number of demand (read+write) MSHR misses
system.cpu.dcache.demand_mshr_misses::total      2632175                       # number of demand (read+write) MSHR misses
system.cpu.dcache.overall_mshr_misses::.cpu.data      2632193                       # number of overall MSHR misses
system.cpu.dcache.overall_mshr_misses::total      2632193                       # number of overall MSHR misses
system.cpu.dcache.demand_mshr_miss_latency::.cpu.data 245053284500                       # number of demand (read+write) MSHR miss cycles
system.cpu.dcache.demand_mshr_miss_latency::total 245053284500                       # number of demand (read+write) MSHR miss cycles
system.cpu.dcache.overall_mshr_miss_latency::.cpu.data 245054979000                       # number of overall MSHR miss cycles
system.cpu.dcache.overall_mshr_miss_latency::total 245054979000                       # number of overall MSHR miss cycles
system.cpu.dcache.demand_mshr_miss_rate::.cpu.data     0.030472                       # mshr miss rate for demand accesses
system.cpu.dcache.demand_mshr_miss_rate::total     0.030472                       # mshr miss rate for demand accesses
system.cpu.dcache.overall_mshr_miss_rate::.cpu.data     0.030472                       # mshr miss rate for overall accesses
system.cpu.dcache.overall_mshr_miss_rate::total     0.030472                       # mshr miss rate for overall accesses
system.cpu.dcache.demand_avg_mshr_miss_latency::.cpu.data 93099.161150                       # average overall mshr miss latency
system.cpu.dcache.demand_avg_mshr_miss_latency::total 93099.161150                       # average overall mshr miss latency
system.cpu.dcache.overall_avg_mshr_miss_latency::.cpu.data 93099.168260                       # average overall mshr miss latency
system.cpu.dcache.overall_avg_mshr_miss_latency::total 93099.168260                       # average overall mshr miss latency
system.cpu.dcache.replacements                2631681                       # number of replacements
system.cpu.dcache.ReadReq_hits::.cpu.data      2043692                       # number of ReadReq hits
system.cpu.dcache.ReadReq_hits::total         2043692                       # number of ReadReq hits
system.cpu.dcache.ReadReq_misses::.cpu.data          416                       # number of ReadReq misses
system.cpu.dcache.ReadReq_misses::total           416                       # number of ReadReq misses
system.cpu.dcache.ReadReq_miss_latency::.cpu.data     24228500                       # number of ReadReq miss cycles
system.cpu.dcache.ReadReq_miss_latency::total     24228500                       # number of ReadReq miss cycles
system.cpu.dcache.ReadReq_accesses::.cpu.data      2044108                       # number of ReadReq accesses(hits+misses)
system.cpu.dcache.ReadReq_accesses::total      2044108                       # number of ReadReq accesses(hits+misses)
system.cpu.dcache.ReadReq_miss_rate::.cpu.data     0.000204                       # miss rate for ReadReq accesses
system.cpu.dcache.ReadReq_miss_rate::total     0.000204                       # miss rate for ReadReq accesses
system.cpu.dcache.ReadReq_avg_miss_latency::.cpu.data 58241.586538                       # average ReadReq miss latency
system.cpu.dcache.ReadReq_avg_miss_latency::total 58241.586538                       # average ReadReq miss latency
system.cpu.dcache.ReadReq_mshr_hits::.cpu.data           21                       # number of ReadReq MSHR hits
system.cpu.dcache.ReadReq_mshr_hits::total           21                       # number of ReadReq MSHR hits
system.cpu.dcache.ReadReq_mshr_misses::.cpu.data          395                       # number of ReadReq MSHR misses
system.cpu.dcache.ReadReq_mshr_misses::total          395                       # number of ReadReq MSHR misses
system.cpu.dcache.ReadReq_mshr_miss_latency::.cpu.data     21805000                       # number of ReadReq MSHR miss cycles
system.cpu.dcache.ReadReq_mshr_miss_latency::total     21805000                       # number of ReadReq MSHR miss cycles
system.cpu.dcache.ReadReq_mshr_miss_rate::.cpu.data     0.000193                       # mshr miss rate for ReadReq accesses
system.cpu.dcache.ReadReq_mshr_miss_rate::total     0.000193                       # mshr miss rate for ReadReq accesses
system.cpu.dcache.ReadReq_avg_mshr_miss_latency::.cpu.data 55202.531646                       # average ReadReq mshr miss latency
system.cpu.dcache.ReadReq_avg_mshr_miss_latency::total 55202.531646                       # average ReadReq mshr miss latency
system.cpu.dcache.WriteReq_hits::.cpu.data     79074586                       # number of WriteReq hits
system.cpu.dcache.WriteReq_hits::total       79074586                       # number of WriteReq hits
system.cpu.dcache.WriteReq_misses::.cpu.data      5262007                       # number of WriteReq misses
system.cpu.dcache.WriteReq_misses::total      5262007                       # number of WriteReq misses
system.cpu.dcache.WriteReq_miss_latency::.cpu.data 499139510000                       # number of WriteReq miss cycles
system.cpu.dcache.WriteReq_miss_latency::total 499139510000                       # number of WriteReq miss cycles
system.cpu.dcache.WriteReq_accesses::.cpu.data     84336593                       # number of WriteReq accesses(hits+misses)
system.cpu.dcache.WriteReq_accesses::total     84336593                       # number of WriteReq accesses(hits+misses)
system.cpu.dcache.WriteReq_miss_rate::.cpu.data     0.062393                       # miss rate for WriteReq accesses
system.cpu.dcache.WriteReq_miss_rate::total     0.062393                       # miss rate for WriteReq accesses
system.cpu.dcache.WriteReq_avg_miss_latency::.cpu.data 94857.249335                       # average WriteReq miss latency
system.cpu.dcache.WriteReq_avg_miss_latency::total 94857.249335                       # average WriteReq miss latency
system.cpu.dcache.WriteReq_mshr_hits::.cpu.data      2630227                       # number of WriteReq MSHR hits
system.cpu.dcache.WriteReq_mshr_hits::total      2630227                       # number of WriteReq MSHR hits
system.cpu.dcache.WriteReq_mshr_misses::.cpu.data      2631780                       # number of WriteReq MSHR misses
system.cpu.dcache.WriteReq_mshr_misses::total      2631780                       # number of WriteReq MSHR misses
system.cpu.dcache.WriteReq_mshr_miss_latency::.cpu.data 245031479500                       # number of WriteReq MSHR miss cycles
system.cpu.dcache.WriteReq_mshr_miss_latency::total 245031479500                       # number of WriteReq MSHR miss cycles
system.cpu.dcache.WriteReq_mshr_miss_rate::.cpu.data     0.031206                       # mshr miss rate for WriteReq accesses
system.cpu.dcache.WriteReq_mshr_miss_rate::total     0.031206                       # mshr miss rate for WriteReq accesses
system.cpu.dcache.WriteReq_avg_mshr_miss_latency::.cpu.data 93104.849000                       # average WriteReq mshr miss latency
system.cpu.dcache.WriteReq_avg_mshr_miss_latency::total 93104.849000                       # average WriteReq mshr miss latency
system.cpu.dcache.SoftPFReq_hits::.cpu.data           42                       # number of SoftPFReq hits
system.cpu.dcache.SoftPFReq_hits::total            42                       # number of SoftPFReq hits
system.cpu.dcache.SoftPFReq_misses::.cpu.data           29                       # number of SoftPFReq misses
system.cpu.dcache.SoftPFReq_misses::total           29                       # number of SoftPFReq misses
system.cpu.dcache.SoftPFReq_accesses::.cpu.data           71                       # number of SoftPFReq accesses(hits+misses)
system.cpu.dcache.SoftPFReq_accesses::total           71                       # number of SoftPFReq accesses(hits+misses)
system.cpu.dcache.SoftPFReq_miss_rate::.cpu.data     0.408451                       # miss rate for SoftPFReq accesses
system.cpu.dcache.SoftPFReq_miss_rate::total     0.408451                       # miss rate for SoftPFReq accesses
system.cpu.dcache.SoftPFReq_mshr_misses::.cpu.data           18                       # number of SoftPFReq MSHR misses
system.cpu.dcache.SoftPFReq_mshr_misses::total           18                       # number of SoftPFReq MSHR misses
system.cpu.dcache.SoftPFReq_mshr_miss_latency::.cpu.data      1694500                       # number of SoftPFReq MSHR miss cycles
system.cpu.dcache.SoftPFReq_mshr_miss_latency::total      1694500                       # number of SoftPFReq MSHR miss cycles
system.cpu.dcache.SoftPFReq_mshr_miss_rate::.cpu.data     0.253521                       # mshr miss rate for SoftPFReq accesses
system.cpu.dcache.SoftPFReq_mshr_miss_rate::total     0.253521                       # mshr miss rate for SoftPFReq accesses
system.cpu.dcache.SoftPFReq_avg_mshr_miss_latency::.cpu.data 94138.888889                       # average SoftPFReq mshr miss latency
system.cpu.dcache.SoftPFReq_avg_mshr_miss_latency::total 94138.888889                       # average SoftPFReq mshr miss latency
system.cpu.dcache.LoadLockedReq_hits::.cpu.data           34                       # number of LoadLockedReq hits
system.cpu.dcache.LoadLockedReq_hits::total           34                       # number of LoadLockedReq hits
system.cpu.dcache.LoadLockedReq_accesses::.cpu.data           34                       # number of LoadLockedReq accesses(hits+misses)
system.cpu.dcache.LoadLockedReq_accesses::total           34                       # number of LoadLockedReq accesses(hits+misses)
system.cpu.dcache.StoreCondReq_hits::.cpu.data           34                       # number of StoreCondReq hits
system.cpu.dcache.StoreCondReq_hits::total           34                       # number of StoreCondReq hits
system.cpu.dcache.StoreCondReq_accesses::.cpu.data           34                       # number of StoreCondReq accesses(hits+misses)
system.cpu.dcache.StoreCondReq_accesses::total           34                       # number of StoreCondReq accesses(hits+misses)
system.cpu.dcache.tags.pwrStateResidencyTicks::UNDEFINED 339968117500                       # Cumulative time (in ticks) in various power states
system.cpu.dcache.tags.tagsinuse           511.808378                       # Cycle average of tags in use
system.cpu.dcache.tags.total_refs            83750581                       # Total number of references to valid blocks.
system.cpu.dcache.tags.sampled_refs           2632193                       # Sample count of references to valid blocks.
system.cpu.dcache.tags.avg_refs             31.817796                       # Average number of references to valid blocks.
system.cpu.dcache.tags.warmup_cycle            186500                       # Cycle when the warmup percentage was hit.
system.cpu.dcache.tags.occ_blocks::.cpu.data   511.808378                       # Average occupied blocks per requestor
system.cpu.dcache.tags.occ_percent::.cpu.data     0.999626                       # Average percentage of cache occupancy
system.cpu.dcache.tags.occ_percent::total     0.999626                       # Average percentage of cache occupancy
system.cpu.dcache.tags.occ_task_id_blocks::1024          512                       # Occupied blocks per task id
system.cpu.dcache.tags.age_task_id_blocks_1024::0           79                       # Occupied blocks per task id
system.cpu.dcache.tags.age_task_id_blocks_1024::1          433                       # Occupied blocks per task id
system.cpu.dcache.tags.occ_task_id_percent::1024            1                       # Percentage of cache occupancy per task id
system.cpu.dcache.tags.tag_accesses         175393873                       # Number of tag accesses
system.cpu.dcache.tags.data_accesses        175393873                       # Number of data accesses
system.cpu.itb.walker.pwrStateResidencyTicks::UNDEFINED 339968117500                       # Cumulative time (in ticks) in various power states
system.cpu.itb.stage2_mmu.stage2_tlb.walker.pwrStateResidencyTicks::UNDEFINED 339968117500                       # Cumulative time (in ticks) in various power states

---------- End Simulation Statistics   ----------
