
---------- Begin Simulation Statistics ----------
final_tick                               174671140000                       # Number of ticks from beginning of simulation (restored from checkpoints and never reset)
host_inst_rate                                 142431                       # Simulator instruction rate (inst/s)
host_mem_usage                                 695716                       # Number of bytes of host memory used
host_op_rate                                   142438                       # Simulator op (including micro ops) rate (op/s)
host_seconds                                   702.09                       # Real time elapsed on the host
host_tick_rate                              248785746                       # Simulator tick rate (ticks/s)
sim_freq                                 1000000000000                       # Frequency of simulated ticks
sim_insts                                   100000000                       # Number of instructions simulated
sim_ops                                     100004953                       # Number of ops (including micro ops) simulated
sim_seconds                                  0.174671                       # Number of seconds simulated
sim_ticks                                174671140000                       # Number of ticks simulated
system.cpu.branchPred.BTBCorrect                    0                       # Number of correct BTB predictions (this stat may not work properly.
system.cpu.branchPred.BTBHitPct             99.509601                       # BTB Hit Percentage
system.cpu.branchPred.BTBHits                  597180                       # Number of BTB hits
system.cpu.branchPred.BTBLookups               600123                       # Number of BTB lookups
system.cpu.branchPred.RASInCorrect                  7                       # Number of incorrect RAS predictions.
system.cpu.branchPred.condIncorrect               967                       # Number of conditional branches incorrect
system.cpu.branchPred.condPredicted            600429                       # Number of conditional branches predicted
system.cpu.branchPred.indirectHits                254                       # Number of indirect target hits.
system.cpu.branchPred.indirectLookups             467                       # Number of indirect predictor lookups.
system.cpu.branchPred.indirectMisses              213                       # Number of indirect misses.
system.cpu.branchPred.lookups                  603030                       # Number of BP lookups
system.cpu.branchPred.usedRAS                     882                       # Number of times the RAS was used to get a target.
system.cpu.branchPredindirectMispredicted          207                       # Number of mispredicted indirect branches.
system.cpu.committedInsts                   100000000                       # Number of instructions committed
system.cpu.committedOps                     100004953                       # Number of ops (including micro ops) committed
system.cpu.cpi                               3.493423                       # CPI: cycles per instruction
system.cpu.discardedOps                          2978                       # Number of ops (including micro ops) which were discarded before commit
system.cpu.dtb.accesses                             0                       # DTB accesses
system.cpu.dtb.align_faults                         0                       # Number of TLB faults due to alignment restrictions
system.cpu.dtb.domain_faults                        0                       # Number of TLB faults due to domain restrictions
system.cpu.dtb.flush_entries                        0                       # Number of entries that have been flushed from TLB
system.cpu.dtb.flush_tlb                            0                       # Number of times complete TLB was flushed
system.cpu.dtb.flush_tlb_asid                       0                       # Number of times TLB was flushed by ASID
system.cpu.dtb.flush_tlb_mva                        0                       # Number of times TLB was flushed by MVA
system.cpu.dtb.flush_tlb_mva_asid                   0                       # Number of times TLB was flushed by MVA & ASID
system.cpu.dtb.hits                                 0                       # DTB hits
system.cpu.dtb.inst_accesses                        0                       # ITB inst accesses
system.cpu.dtb.inst_hits                            0                       # ITB inst hits
system.cpu.dtb.inst_misses                          0                       # ITB inst misses
system.cpu.dtb.misses                               0                       # DTB misses
system.cpu.dtb.perms_faults                         0                       # Number of TLB faults due to permissions restrictions
system.cpu.dtb.prefetch_faults                      0                       # Number of TLB faults due to prefetch
system.cpu.dtb.read_accesses                        0                       # DTB read accesses
system.cpu.dtb.read_hits                            0                       # DTB read hits
system.cpu.dtb.read_misses                          0                       # DTB read misses
system.cpu.dtb.stage2_mmu.stage2_tlb.accesses            0                       # DTB accesses
system.cpu.dtb.stage2_mmu.stage2_tlb.align_faults            0                       # Number of TLB faults due to alignment restrictions
system.cpu.dtb.stage2_mmu.stage2_tlb.domain_faults            0                       # Number of TLB faults due to domain restrictions
system.cpu.dtb.stage2_mmu.stage2_tlb.flush_entries            0                       # Number of entries that have been flushed from TLB
system.cpu.dtb.stage2_mmu.stage2_tlb.flush_tlb            0                       # Number of times complete TLB was flushed
system.cpu.dtb.stage2_mmu.stage2_tlb.flush_tlb_asid            0                       # Number of times TLB was flushed by ASID
system.cpu.dtb.stage2_mmu.stage2_tlb.flush_tlb_mva            0                       # Number of times TLB was flushed by MVA
system.cpu.dtb.stage2_mmu.stage2_tlb.flush_tlb_mva_asid            0                       # Number of times TLB was flushed by MVA & ASID
system.cpu.dtb.stage2_mmu.stage2_tlb.hits            0                       # DTB hits
system.cpu.dtb.stage2_mmu.stage2_tlb.inst_accesses            0                       # ITB inst accesses
system.cpu.dtb.stage2_mmu.stage2_tlb.inst_hits            0                       # ITB inst hits
system.cpu.dtb.stage2_mmu.stage2_tlb.inst_misses            0                       # ITB inst misses
system.cpu.dtb.stage2_mmu.stage2_tlb.misses            0                       # DTB misses
system.cpu.dtb.stage2_mmu.stage2_tlb.perms_faults            0                       # Number of TLB faults due to permissions restrictions
system.cpu.dtb.stage2_mmu.stage2_tlb.prefetch_faults            0                       # Number of TLB faults due to prefetch
system.cpu.dtb.stage2_mmu.stage2_tlb.read_accesses            0                       # DTB read accesses
system.cpu.dtb.stage2_mmu.stage2_tlb.read_hits            0                       # DTB read hits
system.cpu.dtb.stage2_mmu.stage2_tlb.read_misses            0                       # DTB read misses
system.cpu.dtb.stage2_mmu.stage2_tlb.walker.walkRequestOrigin_Requested::Data            0                       # Table walker requests started/completed, data/inst
system.cpu.dtb.stage2_mmu.stage2_tlb.walker.walkRequestOrigin_Requested::Inst            0                       # Table walker requests started/completed, data/inst
system.cpu.dtb.stage2_mmu.stage2_tlb.walker.walkRequestOrigin_Requested::total            0                       # Table walker requests started/completed, data/inst
system.cpu.dtb.stage2_mmu.stage2_tlb.walker.walkRequestOrigin_Completed::Data            0                       # Table walker requests started/completed, data/inst
system.cpu.dtb.stage2_mmu.stage2_tlb.walker.walkRequestOrigin_Completed::Inst            0                       # Table walker requests started/completed, data/inst
system.cpu.dtb.stage2_mmu.stage2_tlb.walker.walkRequestOrigin_Completed::total            0                       # Table walker requests started/completed, data/inst
system.cpu.dtb.stage2_mmu.stage2_tlb.walker.walkRequestOrigin::total            0                       # Table walker requests started/completed, data/inst
system.cpu.dtb.stage2_mmu.stage2_tlb.walker.walks            0                       # Table walker walks requested
system.cpu.dtb.stage2_mmu.stage2_tlb.write_accesses            0                       # DTB write accesses
system.cpu.dtb.stage2_mmu.stage2_tlb.write_hits            0                       # DTB write hits
system.cpu.dtb.stage2_mmu.stage2_tlb.write_misses            0                       # DTB write misses
system.cpu.dtb.walker.walkRequestOrigin_Requested::Data            0                       # Table walker requests started/completed, data/inst
system.cpu.dtb.walker.walkRequestOrigin_Requested::Inst            0                       # Table walker requests started/completed, data/inst
system.cpu.dtb.walker.walkRequestOrigin_Requested::total            0                       # Table walker requests started/completed, data/inst
system.cpu.dtb.walker.walkRequestOrigin_Completed::Data            0                       # Table walker requests started/completed, data/inst
system.cpu.dtb.walker.walkRequestOrigin_Completed::Inst            0                       # Table walker requests started/completed, data/inst
system.cpu.dtb.walker.walkRequestOrigin_Completed::total            0                       # Table walker requests started/completed, data/inst
system.cpu.dtb.walker.walkRequestOrigin::total            0                       # Table walker requests started/completed, data/inst
system.cpu.dtb.walker.walks                         0                       # Table walker walks requested
system.cpu.dtb.write_accesses                       0                       # DTB write accesses
system.cpu.dtb.write_hits                           0                       # DTB write hits
system.cpu.dtb.write_misses                         0                       # DTB write misses
system.cpu.fetch2.amo_instructions                  0                       # Number of memory atomic instructions successfully decoded
system.cpu.fetch2.fp_instructions                   0                       # Number of floating point instructions successfully decoded
system.cpu.fetch2.int_instructions           49412066                       # Number of integer instructions successfully decoded
system.cpu.fetch2.load_instructions          36900317                       # Number of memory load instructions successfully decoded
system.cpu.fetch2.store_instructions         13094128                       # Number of memory store instructions successfully decoded
system.cpu.fetch2.vec_instructions                  0                       # Number of SIMD instructions successfully decoded
system.cpu.idleCycles                       232068629                       # Total number of cycles that the object has spent stopped
system.cpu.ipc                               0.286252                       # IPC: instructions per cycle
system.cpu.itb.accesses                             0                       # DTB accesses
system.cpu.itb.align_faults                         0                       # Number of TLB faults due to alignment restrictions
system.cpu.itb.domain_faults                        0                       # Number of TLB faults due to domain restrictions
system.cpu.itb.flush_entries                        0                       # Number of entries that have been flushed from TLB
system.cpu.itb.flush_tlb                            0                       # Number of times complete TLB was flushed
system.cpu.itb.flush_tlb_asid                       0                       # Number of times TLB was flushed by ASID
system.cpu.itb.flush_tlb_mva                        0                       # Number of times TLB was flushed by MVA
system.cpu.itb.flush_tlb_mva_asid                   0                       # Number of times TLB was flushed by MVA & ASID
system.cpu.itb.hits                                 0                       # DTB hits
system.cpu.itb.inst_accesses                        0                       # ITB inst accesses
system.cpu.itb.inst_hits                            0                       # ITB inst hits
system.cpu.itb.inst_misses                          0                       # ITB inst misses
system.cpu.itb.misses                               0                       # DTB misses
system.cpu.itb.perms_faults                         0                       # Number of TLB faults due to permissions restrictions
system.cpu.itb.prefetch_faults                      0                       # Number of TLB faults due to prefetch
system.cpu.itb.read_accesses                        0                       # DTB read accesses
system.cpu.itb.read_hits                            0                       # DTB read hits
system.cpu.itb.read_misses                          0                       # DTB read misses
system.cpu.itb.stage2_mmu.stage2_tlb.accesses            0                       # DTB accesses
system.cpu.itb.stage2_mmu.stage2_tlb.align_faults            0                       # Number of TLB faults due to alignment restrictions
system.cpu.itb.stage2_mmu.stage2_tlb.domain_faults            0                       # Number of TLB faults due to domain restrictions
system.cpu.itb.stage2_mmu.stage2_tlb.flush_entries            0                       # Number of entries that have been flushed from TLB
system.cpu.itb.stage2_mmu.stage2_tlb.flush_tlb            0                       # Number of times complete TLB was flushed
system.cpu.itb.stage2_mmu.stage2_tlb.flush_tlb_asid            0                       # Number of times TLB was flushed by ASID
system.cpu.itb.stage2_mmu.stage2_tlb.flush_tlb_mva            0                       # Number of times TLB was flushed by MVA
system.cpu.itb.stage2_mmu.stage2_tlb.flush_tlb_mva_asid            0                       # Number of times TLB was flushed by MVA & ASID
system.cpu.itb.stage2_mmu.stage2_tlb.hits            0                       # DTB hits
system.cpu.itb.stage2_mmu.stage2_tlb.inst_accesses            0                       # ITB inst accesses
system.cpu.itb.stage2_mmu.stage2_tlb.inst_hits            0                       # ITB inst hits
system.cpu.itb.stage2_mmu.stage2_tlb.inst_misses            0                       # ITB inst misses
system.cpu.itb.stage2_mmu.stage2_tlb.misses            0                       # DTB misses
system.cpu.itb.stage2_mmu.stage2_tlb.perms_faults            0                       # Number of TLB faults due to permissions restrictions
system.cpu.itb.stage2_mmu.stage2_tlb.prefetch_faults            0                       # Number of TLB faults due to prefetch
system.cpu.itb.stage2_mmu.stage2_tlb.read_accesses            0                       # DTB read accesses
system.cpu.itb.stage2_mmu.stage2_tlb.read_hits            0                       # DTB read hits
system.cpu.itb.stage2_mmu.stage2_tlb.read_misses            0                       # DTB read misses
system.cpu.itb.stage2_mmu.stage2_tlb.walker.walkRequestOrigin_Requested::Data            0                       # Table walker requests started/completed, data/inst
system.cpu.itb.stage2_mmu.stage2_tlb.walker.walkRequestOrigin_Requested::Inst            0                       # Table walker requests started/completed, data/inst
system.cpu.itb.stage2_mmu.stage2_tlb.walker.walkRequestOrigin_Requested::total            0                       # Table walker requests started/completed, data/inst
system.cpu.itb.stage2_mmu.stage2_tlb.walker.walkRequestOrigin_Completed::Data            0                       # Table walker requests started/completed, data/inst
system.cpu.itb.stage2_mmu.stage2_tlb.walker.walkRequestOrigin_Completed::Inst            0                       # Table walker requests started/completed, data/inst
system.cpu.itb.stage2_mmu.stage2_tlb.walker.walkRequestOrigin_Completed::total            0                       # Table walker requests started/completed, data/inst
system.cpu.itb.stage2_mmu.stage2_tlb.walker.walkRequestOrigin::total            0                       # Table walker requests started/completed, data/inst
system.cpu.itb.stage2_mmu.stage2_tlb.walker.walks            0                       # Table walker walks requested
system.cpu.itb.stage2_mmu.stage2_tlb.write_accesses            0                       # DTB write accesses
system.cpu.itb.stage2_mmu.stage2_tlb.write_hits            0                       # DTB write hits
system.cpu.itb.stage2_mmu.stage2_tlb.write_misses            0                       # DTB write misses
system.cpu.itb.walker.walkRequestOrigin_Requested::Data            0                       # Table walker requests started/completed, data/inst
system.cpu.itb.walker.walkRequestOrigin_Requested::Inst            0                       # Table walker requests started/completed, data/inst
system.cpu.itb.walker.walkRequestOrigin_Requested::total            0                       # Table walker requests started/completed, data/inst
system.cpu.itb.walker.walkRequestOrigin_Completed::Data            0                       # Table walker requests started/completed, data/inst
system.cpu.itb.walker.walkRequestOrigin_Completed::Inst            0                       # Table walker requests started/completed, data/inst
system.cpu.itb.walker.walkRequestOrigin_Completed::total            0                       # Table walker requests started/completed, data/inst
system.cpu.itb.walker.walkRequestOrigin::total            0                       # Table walker requests started/completed, data/inst
system.cpu.itb.walker.walks                         0                       # Table walker walks requested
system.cpu.itb.write_accesses                       0                       # DTB write accesses
system.cpu.itb.write_hits                           0                       # DTB write hits
system.cpu.itb.write_misses                         0                       # DTB write misses
system.cpu.numCycles                        349342280                       # number of cpu cycles simulated
system.cpu.numFetchSuspends                         0                       # Number of times Execute suspended instruction fetching
system.cpu.numWorkItemsCompleted                    0                       # number of work items this cpu completed
system.cpu.numWorkItemsStarted                      0                       # number of work items this cpu started
system.cpu.op_class_0::No_OpClass                   0      0.00%      0.00% # Class of committed instruction
system.cpu.op_class_0::IntAlu                50008228     50.01%     50.01% # Class of committed instruction
system.cpu.op_class_0::IntMult                     85      0.00%     50.01% # Class of committed instruction
system.cpu.op_class_0::IntDiv                       0      0.00%     50.01% # Class of committed instruction
system.cpu.op_class_0::FloatAdd                     0      0.00%     50.01% # Class of committed instruction
system.cpu.op_class_0::FloatCmp                     0      0.00%     50.01% # Class of committed instruction
system.cpu.op_class_0::FloatCvt                     0      0.00%     50.01% # Class of committed instruction
system.cpu.op_class_0::FloatMult                    0      0.00%     50.01% # Class of committed instruction
system.cpu.op_class_0::FloatMultAcc                 0      0.00%     50.01% # Class of committed instruction
system.cpu.op_class_0::FloatDiv                     0      0.00%     50.01% # Class of committed instruction
system.cpu.op_class_0::FloatMisc                    0      0.00%     50.01% # Class of committed instruction
system.cpu.op_class_0::FloatSqrt                    0      0.00%     50.01% # Class of committed instruction
system.cpu.op_class_0::SimdAdd                      0      0.00%     50.01% # Class of committed instruction
system.cpu.op_class_0::SimdAddAcc                   0      0.00%     50.01% # Class of committed instruction
system.cpu.op_class_0::SimdAlu                      0      0.00%     50.01% # Class of committed instruction
system.cpu.op_class_0::SimdCmp                      0      0.00%     50.01% # Class of committed instruction
system.cpu.op_class_0::SimdCvt                      0      0.00%     50.01% # Class of committed instruction
system.cpu.op_class_0::SimdMisc                     0      0.00%     50.01% # Class of committed instruction
system.cpu.op_class_0::SimdMult                     0      0.00%     50.01% # Class of committed instruction
system.cpu.op_class_0::SimdMultAcc                  0      0.00%     50.01% # Class of committed instruction
system.cpu.op_class_0::SimdShift                    0      0.00%     50.01% # Class of committed instruction
system.cpu.op_class_0::SimdShiftAcc                 0      0.00%     50.01% # Class of committed instruction
system.cpu.op_class_0::SimdDiv                      0      0.00%     50.01% # Class of committed instruction
system.cpu.op_class_0::SimdSqrt                     0      0.00%     50.01% # Class of committed instruction
system.cpu.op_class_0::SimdFloatAdd                 0      0.00%     50.01% # Class of committed instruction
system.cpu.op_class_0::SimdFloatAlu                 0      0.00%     50.01% # Class of committed instruction
system.cpu.op_class_0::SimdFloatCmp                 2      0.00%     50.01% # Class of committed instruction
system.cpu.op_class_0::SimdFloatCvt                 0      0.00%     50.01% # Class of committed instruction
system.cpu.op_class_0::SimdFloatDiv                 0      0.00%     50.01% # Class of committed instruction
system.cpu.op_class_0::SimdFloatMisc               22      0.00%     50.01% # Class of committed instruction
system.cpu.op_class_0::SimdFloatMult                0      0.00%     50.01% # Class of committed instruction
system.cpu.op_class_0::SimdFloatMultAcc             0      0.00%     50.01% # Class of committed instruction
system.cpu.op_class_0::SimdFloatSqrt                0      0.00%     50.01% # Class of committed instruction
system.cpu.op_class_0::SimdReduceAdd                0      0.00%     50.01% # Class of committed instruction
system.cpu.op_class_0::SimdReduceAlu                0      0.00%     50.01% # Class of committed instruction
system.cpu.op_class_0::SimdReduceCmp                0      0.00%     50.01% # Class of committed instruction
system.cpu.op_class_0::SimdFloatReduceAdd            0      0.00%     50.01% # Class of committed instruction
system.cpu.op_class_0::SimdFloatReduceCmp            0      0.00%     50.01% # Class of committed instruction
system.cpu.op_class_0::SimdAes                      0      0.00%     50.01% # Class of committed instruction
system.cpu.op_class_0::SimdAesMix                   0      0.00%     50.01% # Class of committed instruction
system.cpu.op_class_0::SimdSha1Hash                 0      0.00%     50.01% # Class of committed instruction
system.cpu.op_class_0::SimdSha1Hash2                0      0.00%     50.01% # Class of committed instruction
system.cpu.op_class_0::SimdSha256Hash               0      0.00%     50.01% # Class of committed instruction
system.cpu.op_class_0::SimdSha256Hash2              0      0.00%     50.01% # Class of committed instruction
system.cpu.op_class_0::SimdShaSigma2                0      0.00%     50.01% # Class of committed instruction
system.cpu.op_class_0::SimdShaSigma3                0      0.00%     50.01% # Class of committed instruction
system.cpu.op_class_0::SimdPredAlu                  0      0.00%     50.01% # Class of committed instruction
system.cpu.op_class_0::MemRead               36900530     36.90%     86.90% # Class of committed instruction
system.cpu.op_class_0::MemWrite              13096086     13.10%    100.00% # Class of committed instruction
system.cpu.op_class_0::FloatMemRead                 0      0.00%    100.00% # Class of committed instruction
system.cpu.op_class_0::FloatMemWrite                0      0.00%    100.00% # Class of committed instruction
system.cpu.op_class_0::IprAccess                    0      0.00%    100.00% # Class of committed instruction
system.cpu.op_class_0::InstPrefetch                 0      0.00%    100.00% # Class of committed instruction
system.cpu.op_class_0::total                100004953                       # Class of committed instruction
system.cpu.tickCycles                       117273651                       # Number of cycles that the object actually ticked
system.cpu.workload.numSyscalls                   112                       # Number of system calls
system.membus.snoop_filter.hit_multi_requests            0                       # Number of requests hitting in the snoop filter with multiple (>1) holders of the requested data.
system.membus.snoop_filter.hit_multi_snoops            0                       # Number of snoops hitting in the snoop filter with multiple (>1) holders of the requested data.
system.membus.snoop_filter.hit_single_requests      1455293                       # Number of requests hitting in the snoop filter with a single holder of the requested data.
system.membus.snoop_filter.hit_single_snoops            0                       # Number of snoops hitting in the snoop filter with a single holder of the requested data.
system.membus.snoop_filter.tot_requests       2943704                       # Total number of requests made to the snoop filter.
system.membus.snoop_filter.tot_snoops               0                       # Total number of snoops made to the snoop filter.
system.tol2bus.snoop_filter.hit_multi_requests           31                       # Number of requests hitting in the snoop filter with multiple (>1) holders of the requested data.
system.tol2bus.snoop_filter.hit_multi_snoops            1                       # Number of snoops hitting in the snoop filter with multiple (>1) holders of the requested data.
system.tol2bus.snoop_filter.hit_single_requests      1486101                       # Number of requests hitting in the snoop filter with a single holder of the requested data.
system.tol2bus.snoop_filter.hit_single_snoops          349                       # Number of snoops hitting in the snoop filter with a single holder of the requested data.
system.tol2bus.snoop_filter.tot_requests      2974597                       # Total number of requests made to the snoop filter.
system.tol2bus.snoop_filter.tot_snoops            350                       # Total number of snoops made to the snoop filter.
system.membus.pwrStateResidencyTicks::UNDEFINED 174671140000                       # Cumulative time (in ticks) in various power states
system.membus.trans_dist::ReadResp                600                       # Transaction distribution
system.membus.trans_dist::WritebackDirty      1455060                       # Transaction distribution
system.membus.trans_dist::CleanEvict              233                       # Transaction distribution
system.membus.trans_dist::ReadExReq           1487811                       # Transaction distribution
system.membus.trans_dist::ReadExResp          1487811                       # Transaction distribution
system.membus.trans_dist::ReadSharedReq           600                       # Transaction distribution
system.membus.pkt_count_system.l2.mem_side::system.mem_ctrls.port      4432115                       # Packet count per connected master and slave (bytes)
system.membus.pkt_count::total                4432115                       # Packet count per connected master and slave (bytes)
system.membus.pkt_size_system.l2.mem_side::system.mem_ctrls.port    188382144                       # Cumulative packet size per connected master and slave (bytes)
system.membus.pkt_size::total               188382144                       # Cumulative packet size per connected master and slave (bytes)
system.membus.snoops                                0                       # Total snoops (count)
system.membus.snoopTraffic                          0                       # Total snoop traffic (bytes)
system.membus.snoop_fanout::samples           1488411                       # Request fanout histogram
system.membus.snoop_fanout::mean                    0                       # Request fanout histogram
system.membus.snoop_fanout::stdev                   0                       # Request fanout histogram
system.membus.snoop_fanout::underflows              0      0.00%      0.00% # Request fanout histogram
system.membus.snoop_fanout::0                 1488411    100.00%    100.00% # Request fanout histogram
system.membus.snoop_fanout::1                       0      0.00%    100.00% # Request fanout histogram
system.membus.snoop_fanout::overflows               0      0.00%    100.00% # Request fanout histogram
system.membus.snoop_fanout::min_value               0                       # Request fanout histogram
system.membus.snoop_fanout::max_value               0                       # Request fanout histogram
system.membus.snoop_fanout::total             1488411                       # Request fanout histogram
system.membus.respLayer1.occupancy         7843165500                       # Layer occupancy (ticks)
system.membus.respLayer1.utilization              4.5                       # Layer utilization (%)
system.membus.reqLayer0.occupancy          9359137000                       # Layer occupancy (ticks)
system.membus.reqLayer0.utilization               5.4                       # Layer utilization (%)
system.tol2bus.pwrStateResidencyTicks::UNDEFINED 174671140000                       # Cumulative time (in ticks) in various power states
system.tol2bus.trans_dist::ReadResp               686                       # Transaction distribution
system.tol2bus.trans_dist::WritebackDirty      2940842                       # Transaction distribution
system.tol2bus.trans_dist::WritebackClean          209                       # Transaction distribution
system.tol2bus.trans_dist::CleanEvict             692                       # Transaction distribution
system.tol2bus.trans_dist::ReadExReq          1487811                       # Transaction distribution
system.tol2bus.trans_dist::ReadExResp         1487811                       # Transaction distribution
system.tol2bus.trans_dist::ReadCleanReq           558                       # Transaction distribution
system.tol2bus.trans_dist::ReadSharedReq          128                       # Transaction distribution
system.tol2bus.pkt_count_system.cpu.icache.mem_side::system.l2.cpu_side         1325                       # Packet count per connected master and slave (bytes)
system.tol2bus.pkt_count_system.cpu.dcache.mem_side::system.l2.cpu_side      4461769                       # Packet count per connected master and slave (bytes)
system.tol2bus.pkt_count::total               4463094                       # Packet count per connected master and slave (bytes)
system.tol2bus.pkt_size_system.cpu.icache.mem_side::system.l2.cpu_side        49088                       # Cumulative packet size per connected master and slave (bytes)
system.tol2bus.pkt_size_system.cpu.dcache.mem_side::system.l2.cpu_side    190318144                       # Cumulative packet size per connected master and slave (bytes)
system.tol2bus.pkt_size::total              190367232                       # Cumulative packet size per connected master and slave (bytes)
system.tol2bus.snoops                         1455643                       # Total snoops (count)
system.tol2bus.snoopTraffic                  93123840                       # Total snoop traffic (bytes)
system.tol2bus.snoop_fanout::samples          2944140                       # Request fanout histogram
system.tol2bus.snoop_fanout::mean            0.000130                       # Request fanout histogram
system.tol2bus.snoop_fanout::stdev           0.011435                       # Request fanout histogram
system.tol2bus.snoop_fanout::underflows             0      0.00%      0.00% # Request fanout histogram
system.tol2bus.snoop_fanout::0                2943758     99.99%     99.99% # Request fanout histogram
system.tol2bus.snoop_fanout::1                    381      0.01%    100.00% # Request fanout histogram
system.tol2bus.snoop_fanout::2                      1      0.00%    100.00% # Request fanout histogram
system.tol2bus.snoop_fanout::overflows              0      0.00%    100.00% # Request fanout histogram
system.tol2bus.snoop_fanout::min_value              0                       # Request fanout histogram
system.tol2bus.snoop_fanout::max_value              2                       # Request fanout histogram
system.tol2bus.snoop_fanout::total            2944140                       # Request fanout histogram
system.tol2bus.reqLayer0.occupancy         2973289500                       # Layer occupancy (ticks)
system.tol2bus.reqLayer0.utilization              1.7                       # Layer utilization (%)
system.tol2bus.respLayer1.occupancy        2231909997                       # Layer occupancy (ticks)
system.tol2bus.respLayer1.utilization             1.3                       # Layer utilization (%)
system.tol2bus.respLayer0.occupancy            837000                       # Layer occupancy (ticks)
system.tol2bus.respLayer0.utilization             0.0                       # Layer utilization (%)
system.voltage_domain.voltage                       1                       # Voltage in Volts
system.clk_domain.clock                          1000                       # Clock period in ticks
system.l2.pwrStateResidencyTicks::UNDEFINED 174671140000                       # Cumulative time (in ticks) in various power states
system.l2.demand_hits::.cpu.inst                   68                       # number of demand (read+write) hits
system.l2.demand_hits::.cpu.data                   15                       # number of demand (read+write) hits
system.l2.demand_hits::total                       83                       # number of demand (read+write) hits
system.l2.overall_hits::.cpu.inst                  68                       # number of overall hits
system.l2.overall_hits::.cpu.data                  15                       # number of overall hits
system.l2.overall_hits::total                      83                       # number of overall hits
system.l2.demand_misses::.cpu.inst                490                       # number of demand (read+write) misses
system.l2.demand_misses::.cpu.data            1487924                       # number of demand (read+write) misses
system.l2.demand_misses::total                1488414                       # number of demand (read+write) misses
system.l2.overall_misses::.cpu.inst               490                       # number of overall misses
system.l2.overall_misses::.cpu.data           1487924                       # number of overall misses
system.l2.overall_misses::total               1488414                       # number of overall misses
system.l2.demand_miss_latency::.cpu.inst     36891000                       # number of demand (read+write) miss cycles
system.l2.demand_miss_latency::.cpu.data 118834166500                       # number of demand (read+write) miss cycles
system.l2.demand_miss_latency::total     118871057500                       # number of demand (read+write) miss cycles
system.l2.overall_miss_latency::.cpu.inst     36891000                       # number of overall miss cycles
system.l2.overall_miss_latency::.cpu.data 118834166500                       # number of overall miss cycles
system.l2.overall_miss_latency::total    118871057500                       # number of overall miss cycles
system.l2.demand_accesses::.cpu.inst              558                       # number of demand (read+write) accesses
system.l2.demand_accesses::.cpu.data          1487939                       # number of demand (read+write) accesses
system.l2.demand_accesses::total              1488497                       # number of demand (read+write) accesses
system.l2.overall_accesses::.cpu.inst             558                       # number of overall (read+write) accesses
system.l2.overall_accesses::.cpu.data         1487939                       # number of overall (read+write) accesses
system.l2.overall_accesses::total             1488497                       # number of overall (read+write) accesses
system.l2.demand_miss_rate::.cpu.inst        0.878136                       # miss rate for demand accesses
system.l2.demand_miss_rate::.cpu.data        0.999990                       # miss rate for demand accesses
system.l2.demand_miss_rate::total            0.999944                       # miss rate for demand accesses
system.l2.overall_miss_rate::.cpu.inst       0.878136                       # miss rate for overall accesses
system.l2.overall_miss_rate::.cpu.data       0.999990                       # miss rate for overall accesses
system.l2.overall_miss_rate::total           0.999944                       # miss rate for overall accesses
system.l2.demand_avg_miss_latency::.cpu.inst 75287.755102                       # average overall miss latency
system.l2.demand_avg_miss_latency::.cpu.data 79865.750200                       # average overall miss latency
system.l2.demand_avg_miss_latency::total 79864.243080                       # average overall miss latency
system.l2.overall_avg_miss_latency::.cpu.inst 75287.755102                       # average overall miss latency
system.l2.overall_avg_miss_latency::.cpu.data 79865.750200                       # average overall miss latency
system.l2.overall_avg_miss_latency::total 79864.243080                       # average overall miss latency
system.l2.blocked_cycles::no_mshrs                  0                       # number of cycles access was blocked
system.l2.blocked_cycles::no_targets                0                       # number of cycles access was blocked
system.l2.blocked::no_mshrs                         0                       # number of cycles access was blocked
system.l2.blocked::no_targets                       0                       # number of cycles access was blocked
system.l2.avg_blocked_cycles::no_mshrs            nan                       # average number of cycles each access was blocked
system.l2.avg_blocked_cycles::no_targets          nan                       # average number of cycles each access was blocked
system.l2.writebacks::.writebacks             1455060                       # number of writebacks
system.l2.writebacks::total                   1455060                       # number of writebacks
system.l2.demand_mshr_hits::.cpu.data               3                       # number of demand (read+write) MSHR hits
system.l2.demand_mshr_hits::total                   3                       # number of demand (read+write) MSHR hits
system.l2.overall_mshr_hits::.cpu.data              3                       # number of overall MSHR hits
system.l2.overall_mshr_hits::total                  3                       # number of overall MSHR hits
system.l2.demand_mshr_misses::.cpu.inst           490                       # number of demand (read+write) MSHR misses
system.l2.demand_mshr_misses::.cpu.data       1487921                       # number of demand (read+write) MSHR misses
system.l2.demand_mshr_misses::total           1488411                       # number of demand (read+write) MSHR misses
system.l2.overall_mshr_misses::.cpu.inst          490                       # number of overall MSHR misses
system.l2.overall_mshr_misses::.cpu.data      1487921                       # number of overall MSHR misses
system.l2.overall_mshr_misses::total          1488411                       # number of overall MSHR misses
system.l2.demand_mshr_miss_latency::.cpu.inst     31991000                       # number of demand (read+write) MSHR miss cycles
system.l2.demand_mshr_miss_latency::.cpu.data 103954755000                       # number of demand (read+write) MSHR miss cycles
system.l2.demand_mshr_miss_latency::total 103986746000                       # number of demand (read+write) MSHR miss cycles
system.l2.overall_mshr_miss_latency::.cpu.inst     31991000                       # number of overall MSHR miss cycles
system.l2.overall_mshr_miss_latency::.cpu.data 103954755000                       # number of overall MSHR miss cycles
system.l2.overall_mshr_miss_latency::total 103986746000                       # number of overall MSHR miss cycles
system.l2.demand_mshr_miss_rate::.cpu.inst     0.878136                       # mshr miss rate for demand accesses
system.l2.demand_mshr_miss_rate::.cpu.data     0.999988                       # mshr miss rate for demand accesses
system.l2.demand_mshr_miss_rate::total       0.999942                       # mshr miss rate for demand accesses
system.l2.overall_mshr_miss_rate::.cpu.inst     0.878136                       # mshr miss rate for overall accesses
system.l2.overall_mshr_miss_rate::.cpu.data     0.999988                       # mshr miss rate for overall accesses
system.l2.overall_mshr_miss_rate::total      0.999942                       # mshr miss rate for overall accesses
system.l2.demand_avg_mshr_miss_latency::.cpu.inst 65287.755102                       # average overall mshr miss latency
system.l2.demand_avg_mshr_miss_latency::.cpu.data 69865.775804                       # average overall mshr miss latency
system.l2.demand_avg_mshr_miss_latency::total 69864.268673                       # average overall mshr miss latency
system.l2.overall_avg_mshr_miss_latency::.cpu.inst 65287.755102                       # average overall mshr miss latency
system.l2.overall_avg_mshr_miss_latency::.cpu.data 69865.775804                       # average overall mshr miss latency
system.l2.overall_avg_mshr_miss_latency::total 69864.268673                       # average overall mshr miss latency
system.l2.replacements                        1455643                       # number of replacements
system.l2.WritebackDirty_hits::.writebacks      1485782                       # number of WritebackDirty hits
system.l2.WritebackDirty_hits::total          1485782                       # number of WritebackDirty hits
system.l2.WritebackDirty_accesses::.writebacks      1485782                       # number of WritebackDirty accesses(hits+misses)
system.l2.WritebackDirty_accesses::total      1485782                       # number of WritebackDirty accesses(hits+misses)
system.l2.WritebackClean_hits::.writebacks          196                       # number of WritebackClean hits
system.l2.WritebackClean_hits::total              196                       # number of WritebackClean hits
system.l2.WritebackClean_accesses::.writebacks          196                       # number of WritebackClean accesses(hits+misses)
system.l2.WritebackClean_accesses::total          196                       # number of WritebackClean accesses(hits+misses)
system.l2.ReadExReq_misses::.cpu.data         1487811                       # number of ReadExReq misses
system.l2.ReadExReq_misses::total             1487811                       # number of ReadExReq misses
system.l2.ReadExReq_miss_latency::.cpu.data 118825178500                       # number of ReadExReq miss cycles
system.l2.ReadExReq_miss_latency::total  118825178500                       # number of ReadExReq miss cycles
system.l2.ReadExReq_accesses::.cpu.data       1487811                       # number of ReadExReq accesses(hits+misses)
system.l2.ReadExReq_accesses::total           1487811                       # number of ReadExReq accesses(hits+misses)
system.l2.ReadExReq_miss_rate::.cpu.data            1                       # miss rate for ReadExReq accesses
system.l2.ReadExReq_miss_rate::total                1                       # miss rate for ReadExReq accesses
system.l2.ReadExReq_avg_miss_latency::.cpu.data 79865.774954                       # average ReadExReq miss latency
system.l2.ReadExReq_avg_miss_latency::total 79865.774954                       # average ReadExReq miss latency
system.l2.ReadExReq_mshr_misses::.cpu.data      1487811                       # number of ReadExReq MSHR misses
system.l2.ReadExReq_mshr_misses::total        1487811                       # number of ReadExReq MSHR misses
system.l2.ReadExReq_mshr_miss_latency::.cpu.data 103947068500                       # number of ReadExReq MSHR miss cycles
system.l2.ReadExReq_mshr_miss_latency::total 103947068500                       # number of ReadExReq MSHR miss cycles
system.l2.ReadExReq_mshr_miss_rate::.cpu.data            1                       # mshr miss rate for ReadExReq accesses
system.l2.ReadExReq_mshr_miss_rate::total            1                       # mshr miss rate for ReadExReq accesses
system.l2.ReadExReq_avg_mshr_miss_latency::.cpu.data 69865.774954                       # average ReadExReq mshr miss latency
system.l2.ReadExReq_avg_mshr_miss_latency::total 69865.774954                       # average ReadExReq mshr miss latency
system.l2.ReadCleanReq_hits::.cpu.inst             68                       # number of ReadCleanReq hits
system.l2.ReadCleanReq_hits::total                 68                       # number of ReadCleanReq hits
system.l2.ReadCleanReq_misses::.cpu.inst          490                       # number of ReadCleanReq misses
system.l2.ReadCleanReq_misses::total              490                       # number of ReadCleanReq misses
system.l2.ReadCleanReq_miss_latency::.cpu.inst     36891000                       # number of ReadCleanReq miss cycles
system.l2.ReadCleanReq_miss_latency::total     36891000                       # number of ReadCleanReq miss cycles
system.l2.ReadCleanReq_accesses::.cpu.inst          558                       # number of ReadCleanReq accesses(hits+misses)
system.l2.ReadCleanReq_accesses::total            558                       # number of ReadCleanReq accesses(hits+misses)
system.l2.ReadCleanReq_miss_rate::.cpu.inst     0.878136                       # miss rate for ReadCleanReq accesses
system.l2.ReadCleanReq_miss_rate::total      0.878136                       # miss rate for ReadCleanReq accesses
system.l2.ReadCleanReq_avg_miss_latency::.cpu.inst 75287.755102                       # average ReadCleanReq miss latency
system.l2.ReadCleanReq_avg_miss_latency::total 75287.755102                       # average ReadCleanReq miss latency
system.l2.ReadCleanReq_mshr_misses::.cpu.inst          490                       # number of ReadCleanReq MSHR misses
system.l2.ReadCleanReq_mshr_misses::total          490                       # number of ReadCleanReq MSHR misses
system.l2.ReadCleanReq_mshr_miss_latency::.cpu.inst     31991000                       # number of ReadCleanReq MSHR miss cycles
system.l2.ReadCleanReq_mshr_miss_latency::total     31991000                       # number of ReadCleanReq MSHR miss cycles
system.l2.ReadCleanReq_mshr_miss_rate::.cpu.inst     0.878136                       # mshr miss rate for ReadCleanReq accesses
system.l2.ReadCleanReq_mshr_miss_rate::total     0.878136                       # mshr miss rate for ReadCleanReq accesses
system.l2.ReadCleanReq_avg_mshr_miss_latency::.cpu.inst 65287.755102                       # average ReadCleanReq mshr miss latency
system.l2.ReadCleanReq_avg_mshr_miss_latency::total 65287.755102                       # average ReadCleanReq mshr miss latency
system.l2.ReadSharedReq_hits::.cpu.data            15                       # number of ReadSharedReq hits
system.l2.ReadSharedReq_hits::total                15                       # number of ReadSharedReq hits
system.l2.ReadSharedReq_misses::.cpu.data          113                       # number of ReadSharedReq misses
system.l2.ReadSharedReq_misses::total             113                       # number of ReadSharedReq misses
system.l2.ReadSharedReq_miss_latency::.cpu.data      8988000                       # number of ReadSharedReq miss cycles
system.l2.ReadSharedReq_miss_latency::total      8988000                       # number of ReadSharedReq miss cycles
system.l2.ReadSharedReq_accesses::.cpu.data          128                       # number of ReadSharedReq accesses(hits+misses)
system.l2.ReadSharedReq_accesses::total           128                       # number of ReadSharedReq accesses(hits+misses)
system.l2.ReadSharedReq_miss_rate::.cpu.data     0.882812                       # miss rate for ReadSharedReq accesses
system.l2.ReadSharedReq_miss_rate::total     0.882812                       # miss rate for ReadSharedReq accesses
system.l2.ReadSharedReq_avg_miss_latency::.cpu.data 79539.823009                       # average ReadSharedReq miss latency
system.l2.ReadSharedReq_avg_miss_latency::total 79539.823009                       # average ReadSharedReq miss latency
system.l2.ReadSharedReq_mshr_hits::.cpu.data            3                       # number of ReadSharedReq MSHR hits
system.l2.ReadSharedReq_mshr_hits::total            3                       # number of ReadSharedReq MSHR hits
system.l2.ReadSharedReq_mshr_misses::.cpu.data          110                       # number of ReadSharedReq MSHR misses
system.l2.ReadSharedReq_mshr_misses::total          110                       # number of ReadSharedReq MSHR misses
system.l2.ReadSharedReq_mshr_miss_latency::.cpu.data      7686500                       # number of ReadSharedReq MSHR miss cycles
system.l2.ReadSharedReq_mshr_miss_latency::total      7686500                       # number of ReadSharedReq MSHR miss cycles
system.l2.ReadSharedReq_mshr_miss_rate::.cpu.data     0.859375                       # mshr miss rate for ReadSharedReq accesses
system.l2.ReadSharedReq_mshr_miss_rate::total     0.859375                       # mshr miss rate for ReadSharedReq accesses
system.l2.ReadSharedReq_avg_mshr_miss_latency::.cpu.data 69877.272727                       # average ReadSharedReq mshr miss latency
system.l2.ReadSharedReq_avg_mshr_miss_latency::total 69877.272727                       # average ReadSharedReq mshr miss latency
system.l2.tags.pwrStateResidencyTicks::UNDEFINED 174671140000                       # Cumulative time (in ticks) in various power states
system.l2.tags.tagsinuse                 32427.683828                       # Cycle average of tags in use
system.l2.tags.total_refs                     2974563                       # Total number of references to valid blocks.
system.l2.tags.sampled_refs                   1488411                       # Sample count of references to valid blocks.
system.l2.tags.avg_refs                      1.998482                       # Average number of references to valid blocks.
system.l2.tags.warmup_cycle                     77000                       # Cycle when the warmup percentage was hit.
system.l2.tags.occ_blocks::.cpu.inst         9.591874                       # Average occupied blocks per requestor
system.l2.tags.occ_blocks::.cpu.data     32418.091954                       # Average occupied blocks per requestor
system.l2.tags.occ_percent::.cpu.inst        0.000293                       # Average percentage of cache occupancy
system.l2.tags.occ_percent::.cpu.data        0.989322                       # Average percentage of cache occupancy
system.l2.tags.occ_percent::total            0.989614                       # Average percentage of cache occupancy
system.l2.tags.occ_task_id_blocks::1024         32768                       # Occupied blocks per task id
system.l2.tags.age_task_id_blocks_1024::0           83                       # Occupied blocks per task id
system.l2.tags.age_task_id_blocks_1024::1          767                       # Occupied blocks per task id
system.l2.tags.age_task_id_blocks_1024::2         7641                       # Occupied blocks per task id
system.l2.tags.age_task_id_blocks_1024::3        24277                       # Occupied blocks per task id
system.l2.tags.occ_task_id_percent::1024            1                       # Percentage of cache occupancy per task id
system.l2.tags.tag_accesses                  25284939                       # Number of tag accesses
system.l2.tags.data_accesses                 25284939                       # Number of data accesses
system.cpu_voltage_domain.voltage                   1                       # Voltage in Volts
system.mem_ctrls.pwrStateResidencyTicks::UNDEFINED 174671140000                       # Cumulative time (in ticks) in various power states
system.mem_ctrls.bytes_read::.cpu.inst          31360                       # Number of bytes read from this memory
system.mem_ctrls.bytes_read::.cpu.data       95226944                       # Number of bytes read from this memory
system.mem_ctrls.bytes_read::total           95258304                       # Number of bytes read from this memory
system.mem_ctrls.bytes_inst_read::.cpu.inst        31360                       # Number of instructions bytes read from this memory
system.mem_ctrls.bytes_inst_read::total         31360                       # Number of instructions bytes read from this memory
system.mem_ctrls.bytes_written::.writebacks     93123840                       # Number of bytes written to this memory
system.mem_ctrls.bytes_written::total        93123840                       # Number of bytes written to this memory
system.mem_ctrls.num_reads::.cpu.inst             490                       # Number of read requests responded to by this memory
system.mem_ctrls.num_reads::.cpu.data         1487921                       # Number of read requests responded to by this memory
system.mem_ctrls.num_reads::total             1488411                       # Number of read requests responded to by this memory
system.mem_ctrls.num_writes::.writebacks      1455060                       # Number of write requests responded to by this memory
system.mem_ctrls.num_writes::total            1455060                       # Number of write requests responded to by this memory
system.mem_ctrls.bw_read::.cpu.inst            179537                       # Total read bandwidth from this memory (bytes/s)
system.mem_ctrls.bw_read::.cpu.data         545178465                       # Total read bandwidth from this memory (bytes/s)
system.mem_ctrls.bw_read::total             545358002                       # Total read bandwidth from this memory (bytes/s)
system.mem_ctrls.bw_inst_read::.cpu.inst       179537                       # Instruction read bandwidth from this memory (bytes/s)
system.mem_ctrls.bw_inst_read::total           179537                       # Instruction read bandwidth from this memory (bytes/s)
system.mem_ctrls.bw_write::.writebacks      533138102                       # Write bandwidth from this memory (bytes/s)
system.mem_ctrls.bw_write::total            533138102                       # Write bandwidth from this memory (bytes/s)
system.mem_ctrls.bw_total::.writebacks      533138102                       # Total bandwidth to/from this memory (bytes/s)
system.mem_ctrls.bw_total::.cpu.inst           179537                       # Total bandwidth to/from this memory (bytes/s)
system.mem_ctrls.bw_total::.cpu.data        545178465                       # Total bandwidth to/from this memory (bytes/s)
system.mem_ctrls.bw_total::total           1078496104                       # Total bandwidth to/from this memory (bytes/s)
system.mem_ctrls.avgPriority_.writebacks::samples   1455060.00                       # Average QoS priority value for accepted requests
system.mem_ctrls.avgPriority_.cpu.inst::samples       490.00                       # Average QoS priority value for accepted requests
system.mem_ctrls.avgPriority_.cpu.data::samples   1487921.00                       # Average QoS priority value for accepted requests
system.mem_ctrls.priorityMinLatency      0.000000018750                       # per QoS priority minimum request to response latency (s)
system.mem_ctrls.priorityMaxLatency      0.000908651250                       # per QoS priority maximum request to response latency (s)
system.mem_ctrls.numReadWriteTurnArounds        90497                       # Number of turnarounds from READ to WRITE
system.mem_ctrls.numWriteReadTurnArounds        90497                       # Number of turnarounds from WRITE to READ
system.mem_ctrls.numStayReadState             4382663                       # Number of times bus staying in READ state
system.mem_ctrls.numStayWriteState            1366855                       # Number of times bus staying in WRITE state
system.mem_ctrls.readReqs                     1488411                       # Number of read requests accepted
system.mem_ctrls.writeReqs                    1455060                       # Number of write requests accepted
system.mem_ctrls.readBursts                   1488411                       # Number of DRAM read bursts, including those serviced by the write queue
system.mem_ctrls.writeBursts                  1455060                       # Number of DRAM write bursts, including those merged in the write queue
system.mem_ctrls.servicedByWrQ                      0                       # Number of DRAM read bursts serviced by the write queue
system.mem_ctrls.mergedWrBursts                     0                       # Number of DRAM write bursts merged with an existing one
system.mem_ctrls.neitherReadNorWriteReqs            0                       # Number of requests that are neither read nor write
system.mem_ctrls.perBankRdBursts::0             93064                       # Per bank write bursts
system.mem_ctrls.perBankRdBursts::1             92958                       # Per bank write bursts
system.mem_ctrls.perBankRdBursts::2             92992                       # Per bank write bursts
system.mem_ctrls.perBankRdBursts::3             93001                       # Per bank write bursts
system.mem_ctrls.perBankRdBursts::4             93101                       # Per bank write bursts
system.mem_ctrls.perBankRdBursts::5             93074                       # Per bank write bursts
system.mem_ctrls.perBankRdBursts::6             93061                       # Per bank write bursts
system.mem_ctrls.perBankRdBursts::7             93078                       # Per bank write bursts
system.mem_ctrls.perBankRdBursts::8             93156                       # Per bank write bursts
system.mem_ctrls.perBankRdBursts::9             93072                       # Per bank write bursts
system.mem_ctrls.perBankRdBursts::10            93010                       # Per bank write bursts
system.mem_ctrls.perBankRdBursts::11            92953                       # Per bank write bursts
system.mem_ctrls.perBankRdBursts::12            92999                       # Per bank write bursts
system.mem_ctrls.perBankRdBursts::13            92951                       # Per bank write bursts
system.mem_ctrls.perBankRdBursts::14            92954                       # Per bank write bursts
system.mem_ctrls.perBankRdBursts::15            92987                       # Per bank write bursts
system.mem_ctrls.perBankWrBursts::0             90924                       # Per bank write bursts
system.mem_ctrls.perBankWrBursts::1             90904                       # Per bank write bursts
system.mem_ctrls.perBankWrBursts::2             90895                       # Per bank write bursts
system.mem_ctrls.perBankWrBursts::3             90949                       # Per bank write bursts
system.mem_ctrls.perBankWrBursts::4             91009                       # Per bank write bursts
system.mem_ctrls.perBankWrBursts::5             91008                       # Per bank write bursts
system.mem_ctrls.perBankWrBursts::6             91008                       # Per bank write bursts
system.mem_ctrls.perBankWrBursts::7             91008                       # Per bank write bursts
system.mem_ctrls.perBankWrBursts::8             91008                       # Per bank write bursts
system.mem_ctrls.perBankWrBursts::9             91008                       # Per bank write bursts
system.mem_ctrls.perBankWrBursts::10            90904                       # Per bank write bursts
system.mem_ctrls.perBankWrBursts::11            90880                       # Per bank write bursts
system.mem_ctrls.perBankWrBursts::12            90880                       # Per bank write bursts
system.mem_ctrls.perBankWrBursts::13            90880                       # Per bank write bursts
system.mem_ctrls.perBankWrBursts::14            90880                       # Per bank write bursts
system.mem_ctrls.perBankWrBursts::15            90884                       # Per bank write bursts
system.mem_ctrls.avgRdQLen                       1.00                       # Average read queue length when enqueuing
system.mem_ctrls.avgWrQLen                      25.37                       # Average write queue length when enqueuing
system.mem_ctrls.totQLat                  14802066750                       # Total ticks spent queuing
system.mem_ctrls.totBusLat                 7442055000                       # Total ticks spent in databus transfers
system.mem_ctrls.totMemAccLat             42709773000                       # Total ticks spent from burst creation until serviced by the DRAM
system.mem_ctrls.avgQLat                      9944.88                       # Average queueing delay per DRAM burst
system.mem_ctrls.avgBusLat                    5000.00                       # Average bus latency per DRAM burst
system.mem_ctrls.avgMemAccLat                28694.88                       # Average memory access latency per DRAM burst
system.mem_ctrls.numRdRetry                         0                       # Number of times read queue was full causing retry
system.mem_ctrls.numWrRetry                         0                       # Number of times write queue was full causing retry
system.mem_ctrls.readRowHits                  1364917                       # Number of row buffer hits during reads
system.mem_ctrls.writeRowHits                 1350240                       # Number of row buffer hits during writes
system.mem_ctrls.readRowHitRate                 91.70                       # Row buffer hit rate for reads
system.mem_ctrls.writeRowHitRate                92.80                       # Row buffer hit rate for writes
system.mem_ctrls.readPktSize::0                     0                       # Read request sizes (log2)
system.mem_ctrls.readPktSize::1                     0                       # Read request sizes (log2)
system.mem_ctrls.readPktSize::2                     0                       # Read request sizes (log2)
system.mem_ctrls.readPktSize::3                     0                       # Read request sizes (log2)
system.mem_ctrls.readPktSize::4                     0                       # Read request sizes (log2)
system.mem_ctrls.readPktSize::5                     0                       # Read request sizes (log2)
system.mem_ctrls.readPktSize::6               1488411                       # Read request sizes (log2)
system.mem_ctrls.writePktSize::0                    0                       # Write request sizes (log2)
system.mem_ctrls.writePktSize::1                    0                       # Write request sizes (log2)
system.mem_ctrls.writePktSize::2                    0                       # Write request sizes (log2)
system.mem_ctrls.writePktSize::3                    0                       # Write request sizes (log2)
system.mem_ctrls.writePktSize::4                    0                       # Write request sizes (log2)
system.mem_ctrls.writePktSize::5                    0                       # Write request sizes (log2)
system.mem_ctrls.writePktSize::6              1455060                       # Write request sizes (log2)
system.mem_ctrls.rdQLenPdf::0                 1488314                       # What read queue length does an incoming req see
system.mem_ctrls.rdQLenPdf::1                      87                       # What read queue length does an incoming req see
system.mem_ctrls.rdQLenPdf::2                       9                       # What read queue length does an incoming req see
system.mem_ctrls.rdQLenPdf::3                       1                       # What read queue length does an incoming req see
system.mem_ctrls.rdQLenPdf::4                       0                       # What read queue length does an incoming req see
system.mem_ctrls.rdQLenPdf::5                       0                       # What read queue length does an incoming req see
system.mem_ctrls.rdQLenPdf::6                       0                       # What read queue length does an incoming req see
system.mem_ctrls.rdQLenPdf::7                       0                       # What read queue length does an incoming req see
system.mem_ctrls.rdQLenPdf::8                       0                       # What read queue length does an incoming req see
system.mem_ctrls.rdQLenPdf::9                       0                       # What read queue length does an incoming req see
system.mem_ctrls.rdQLenPdf::10                      0                       # What read queue length does an incoming req see
system.mem_ctrls.rdQLenPdf::11                      0                       # What read queue length does an incoming req see
system.mem_ctrls.rdQLenPdf::12                      0                       # What read queue length does an incoming req see
system.mem_ctrls.rdQLenPdf::13                      0                       # What read queue length does an incoming req see
system.mem_ctrls.rdQLenPdf::14                      0                       # What read queue length does an incoming req see
system.mem_ctrls.rdQLenPdf::15                      0                       # What read queue length does an incoming req see
system.mem_ctrls.rdQLenPdf::16                      0                       # What read queue length does an incoming req see
system.mem_ctrls.rdQLenPdf::17                      0                       # What read queue length does an incoming req see
system.mem_ctrls.rdQLenPdf::18                      0                       # What read queue length does an incoming req see
system.mem_ctrls.rdQLenPdf::19                      0                       # What read queue length does an incoming req see
system.mem_ctrls.rdQLenPdf::20                      0                       # What read queue length does an incoming req see
system.mem_ctrls.rdQLenPdf::21                      0                       # What read queue length does an incoming req see
system.mem_ctrls.rdQLenPdf::22                      0                       # What read queue length does an incoming req see
system.mem_ctrls.rdQLenPdf::23                      0                       # What read queue length does an incoming req see
system.mem_ctrls.rdQLenPdf::24                      0                       # What read queue length does an incoming req see
system.mem_ctrls.rdQLenPdf::25                      0                       # What read queue length does an incoming req see
system.mem_ctrls.rdQLenPdf::26                      0                       # What read queue length does an incoming req see
system.mem_ctrls.rdQLenPdf::27                      0                       # What read queue length does an incoming req see
system.mem_ctrls.rdQLenPdf::28                      0                       # What read queue length does an incoming req see
system.mem_ctrls.rdQLenPdf::29                      0                       # What read queue length does an incoming req see
system.mem_ctrls.rdQLenPdf::30                      0                       # What read queue length does an incoming req see
system.mem_ctrls.rdQLenPdf::31                      0                       # What read queue length does an incoming req see
system.mem_ctrls.wrQLenPdf::0                       1                       # What write queue length does an incoming req see
system.mem_ctrls.wrQLenPdf::1                       1                       # What write queue length does an incoming req see
system.mem_ctrls.wrQLenPdf::2                       1                       # What write queue length does an incoming req see
system.mem_ctrls.wrQLenPdf::3                       1                       # What write queue length does an incoming req see
system.mem_ctrls.wrQLenPdf::4                       1                       # What write queue length does an incoming req see
system.mem_ctrls.wrQLenPdf::5                       1                       # What write queue length does an incoming req see
system.mem_ctrls.wrQLenPdf::6                       1                       # What write queue length does an incoming req see
system.mem_ctrls.wrQLenPdf::7                       1                       # What write queue length does an incoming req see
system.mem_ctrls.wrQLenPdf::8                       1                       # What write queue length does an incoming req see
system.mem_ctrls.wrQLenPdf::9                       1                       # What write queue length does an incoming req see
system.mem_ctrls.wrQLenPdf::10                      1                       # What write queue length does an incoming req see
system.mem_ctrls.wrQLenPdf::11                      1                       # What write queue length does an incoming req see
system.mem_ctrls.wrQLenPdf::12                      1                       # What write queue length does an incoming req see
system.mem_ctrls.wrQLenPdf::13                      1                       # What write queue length does an incoming req see
system.mem_ctrls.wrQLenPdf::14                      1                       # What write queue length does an incoming req see
system.mem_ctrls.wrQLenPdf::15                   1222                       # What write queue length does an incoming req see
system.mem_ctrls.wrQLenPdf::16                   3062                       # What write queue length does an incoming req see
system.mem_ctrls.wrQLenPdf::17                  91359                       # What write queue length does an incoming req see
system.mem_ctrls.wrQLenPdf::18                  90501                       # What write queue length does an incoming req see
system.mem_ctrls.wrQLenPdf::19                  90661                       # What write queue length does an incoming req see
system.mem_ctrls.wrQLenPdf::20                  90552                       # What write queue length does an incoming req see
system.mem_ctrls.wrQLenPdf::21                  90506                       # What write queue length does an incoming req see
system.mem_ctrls.wrQLenPdf::22                  90499                       # What write queue length does an incoming req see
system.mem_ctrls.wrQLenPdf::23                  90501                       # What write queue length does an incoming req see
system.mem_ctrls.wrQLenPdf::24                  90498                       # What write queue length does an incoming req see
system.mem_ctrls.wrQLenPdf::25                  92200                       # What write queue length does an incoming req see
system.mem_ctrls.wrQLenPdf::26                  90498                       # What write queue length does an incoming req see
system.mem_ctrls.wrQLenPdf::27                  90498                       # What write queue length does an incoming req see
system.mem_ctrls.wrQLenPdf::28                  90498                       # What write queue length does an incoming req see
system.mem_ctrls.wrQLenPdf::29                  90498                       # What write queue length does an incoming req see
system.mem_ctrls.wrQLenPdf::30                  90498                       # What write queue length does an incoming req see
system.mem_ctrls.wrQLenPdf::31                  90497                       # What write queue length does an incoming req see
system.mem_ctrls.wrQLenPdf::32                  90497                       # What write queue length does an incoming req see
system.mem_ctrls.wrQLenPdf::33                      0                       # What write queue length does an incoming req see
system.mem_ctrls.wrQLenPdf::34                      0                       # What write queue length does an incoming req see
system.mem_ctrls.wrQLenPdf::35                      0                       # What write queue length does an incoming req see
system.mem_ctrls.wrQLenPdf::36                      0                       # What write queue length does an incoming req see
system.mem_ctrls.wrQLenPdf::37                      0                       # What write queue length does an incoming req see
system.mem_ctrls.wrQLenPdf::38                      0                       # What write queue length does an incoming req see
system.mem_ctrls.wrQLenPdf::39                      0                       # What write queue length does an incoming req see
system.mem_ctrls.wrQLenPdf::40                      0                       # What write queue length does an incoming req see
system.mem_ctrls.wrQLenPdf::41                      0                       # What write queue length does an incoming req see
system.mem_ctrls.wrQLenPdf::42                      0                       # What write queue length does an incoming req see
system.mem_ctrls.wrQLenPdf::43                      0                       # What write queue length does an incoming req see
system.mem_ctrls.wrQLenPdf::44                      0                       # What write queue length does an incoming req see
system.mem_ctrls.wrQLenPdf::45                      0                       # What write queue length does an incoming req see
system.mem_ctrls.wrQLenPdf::46                      0                       # What write queue length does an incoming req see
system.mem_ctrls.wrQLenPdf::47                      0                       # What write queue length does an incoming req see
system.mem_ctrls.wrQLenPdf::48                      0                       # What write queue length does an incoming req see
system.mem_ctrls.wrQLenPdf::49                      0                       # What write queue length does an incoming req see
system.mem_ctrls.wrQLenPdf::50                      0                       # What write queue length does an incoming req see
system.mem_ctrls.wrQLenPdf::51                      0                       # What write queue length does an incoming req see
system.mem_ctrls.wrQLenPdf::52                      0                       # What write queue length does an incoming req see
system.mem_ctrls.wrQLenPdf::53                      0                       # What write queue length does an incoming req see
system.mem_ctrls.wrQLenPdf::54                      0                       # What write queue length does an incoming req see
system.mem_ctrls.wrQLenPdf::55                      0                       # What write queue length does an incoming req see
system.mem_ctrls.wrQLenPdf::56                      0                       # What write queue length does an incoming req see
system.mem_ctrls.wrQLenPdf::57                      0                       # What write queue length does an incoming req see
system.mem_ctrls.wrQLenPdf::58                      0                       # What write queue length does an incoming req see
system.mem_ctrls.wrQLenPdf::59                      0                       # What write queue length does an incoming req see
system.mem_ctrls.wrQLenPdf::60                      0                       # What write queue length does an incoming req see
system.mem_ctrls.wrQLenPdf::61                      0                       # What write queue length does an incoming req see
system.mem_ctrls.wrQLenPdf::62                      0                       # What write queue length does an incoming req see
system.mem_ctrls.wrQLenPdf::63                      0                       # What write queue length does an incoming req see
system.mem_ctrls.bytesPerActivate::samples       228282                       # Bytes accessed per row activation
system.mem_ctrls.bytesPerActivate::mean    825.204195                       # Bytes accessed per row activation
system.mem_ctrls.bytesPerActivate::gmean   692.714799                       # Bytes accessed per row activation
system.mem_ctrls.bytesPerActivate::stdev   319.388045                       # Bytes accessed per row activation
system.mem_ctrls.bytesPerActivate::0-127        13032      5.71%      5.71% # Bytes accessed per row activation
system.mem_ctrls.bytesPerActivate::128-255         9810      4.30%     10.01% # Bytes accessed per row activation
system.mem_ctrls.bytesPerActivate::256-383         7460      3.27%     13.27% # Bytes accessed per row activation
system.mem_ctrls.bytesPerActivate::384-511        10710      4.69%     17.97% # Bytes accessed per row activation
system.mem_ctrls.bytesPerActivate::512-639        16825      7.37%     25.34% # Bytes accessed per row activation
system.mem_ctrls.bytesPerActivate::640-767         6359      2.79%     28.12% # Bytes accessed per row activation
system.mem_ctrls.bytesPerActivate::768-895         6411      2.81%     30.93% # Bytes accessed per row activation
system.mem_ctrls.bytesPerActivate::896-1023        10035      4.40%     35.33% # Bytes accessed per row activation
system.mem_ctrls.bytesPerActivate::1024-1151       147640     64.67%    100.00% # Bytes accessed per row activation
system.mem_ctrls.bytesPerActivate::total       228282                       # Bytes accessed per row activation
system.mem_ctrls.rdPerTurnAround::samples        90497                       # Reads before turning the bus around for writes
system.mem_ctrls.rdPerTurnAround::mean      16.446921                       # Reads before turning the bus around for writes
system.mem_ctrls.rdPerTurnAround::gmean     16.078310                       # Reads before turning the bus around for writes
system.mem_ctrls.rdPerTurnAround::stdev    103.232582                       # Reads before turning the bus around for writes
system.mem_ctrls.rdPerTurnAround::0-1023        90495    100.00%    100.00% # Reads before turning the bus around for writes
system.mem_ctrls.rdPerTurnAround::2048-3071            1      0.00%    100.00% # Reads before turning the bus around for writes
system.mem_ctrls.rdPerTurnAround::30720-31743            1      0.00%    100.00% # Reads before turning the bus around for writes
system.mem_ctrls.rdPerTurnAround::total         90497                       # Reads before turning the bus around for writes
system.mem_ctrls.wrPerTurnAround::samples        90497                       # Writes before turning the bus around for reads
system.mem_ctrls.wrPerTurnAround::mean      16.078201                       # Writes before turning the bus around for reads
system.mem_ctrls.wrPerTurnAround::gmean     16.072813                       # Writes before turning the bus around for reads
system.mem_ctrls.wrPerTurnAround::stdev      0.436641                       # Writes before turning the bus around for reads
system.mem_ctrls.wrPerTurnAround::16            87564     96.76%     96.76% # Writes before turning the bus around for reads
system.mem_ctrls.wrPerTurnAround::17               10      0.01%     96.77% # Writes before turning the bus around for reads
system.mem_ctrls.wrPerTurnAround::18             1702      1.88%     98.65% # Writes before turning the bus around for reads
system.mem_ctrls.wrPerTurnAround::19             1221      1.35%    100.00% # Writes before turning the bus around for reads
system.mem_ctrls.wrPerTurnAround::total         90497                       # Writes before turning the bus around for reads
[...]
system.cpu.icache.ReadReq_avg_miss_latency::.cpu.inst 69920.250896                       # average ReadReq miss latency
system.cpu.icache.ReadReq_avg_miss_latency::total 69920.250896                       # average ReadReq miss latency
system.cpu.icache.ReadReq_mshr_misses::.cpu.inst          558                       # number of ReadReq MSHR misses
system.cpu.icache.ReadReq_mshr_misses::total          558                       # number of ReadReq MSHR misses
system.cpu.icache.ReadReq_mshr_miss_latency::.cpu.inst     38457500                       # number of ReadReq MSHR miss cycles
system.cpu.icache.ReadReq_mshr_miss_latency::total     38457500                       # number of ReadReq MSHR miss cycles
system.cpu.icache.ReadReq_mshr_miss_rate::.cpu.inst     0.000094                       # mshr miss rate for ReadReq accesses
system.cpu.icache.ReadReq_mshr_miss_rate::total     0.000094                       # mshr miss rate for ReadReq accesses
system.cpu.icache.ReadReq_avg_mshr_miss_latency::.cpu.inst 68920.250896                       # average ReadReq mshr miss latency
system.cpu.icache.ReadReq_avg_mshr_miss_latency::total 68920.250896                       # average ReadReq mshr miss latency
system.cpu.icache.tags.pwrStateResidencyTicks::UNDEFINED 174671140000                       # Cumulative time (in ticks) in various power states
system.cpu.icache.tags.tagsinuse           348.951899                       # Cycle average of tags in use
system.cpu.icache.tags.total_refs             5960914                       # Total number of references to valid blocks.
system.cpu.icache.tags.sampled_refs               558                       # Sample count of references to valid blocks.
system.cpu.icache.tags.avg_refs          10682.641577                       # Average number of references to valid blocks.
system.cpu.icache.tags.warmup_cycle             87500                       # Cycle when the warmup percentage was hit.
system.cpu.icache.tags.occ_blocks::.cpu.inst   348.951899                       # Average occupied blocks per requestor
system.cpu.icache.tags.occ_percent::.cpu.inst     0.681547                       # Average percentage of cache occupancy
system.cpu.icache.tags.occ_percent::total     0.681547                       # Average percentage of cache occupancy
system.cpu.icache.tags.occ_task_id_blocks::1024          349                       # Occupied blocks per task id
system.cpu.icache.tags.age_task_id_blocks_1024::4          349                       # Occupied blocks per task id
system.cpu.icache.tags.occ_task_id_percent::1024     0.681641                       # Percentage of cache occupancy per task id
system.cpu.icache.tags.tag_accesses          11922386                       # Number of tag accesses
system.cpu.icache.tags.data_accesses         11922386                       # Number of data accesses
system.cpu.dtb.walker.pwrStateResidencyTicks::UNDEFINED 174671140000                       # Cumulative time (in ticks) in various power states
system.cpu.dtb.stage2_mmu.stage2_tlb.walker.pwrStateResidencyTicks::UNDEFINED 174671140000                       # Cumulative time (in ticks) in various power states
system.cpu.dcache.pwrStateResidencyTicks::UNDEFINED 174671140000                       # Cumulative time (in ticks) in various power states
system.cpu.dcache.demand_hits::.cpu.data     45831066                       # number of demand (read+write) hits
system.cpu.dcache.demand_hits::total         45831066                       # number of demand (read+write) hits
system.cpu.dcache.overall_hits::.cpu.data     45831097                       # number of overall hits
system.cpu.dcache.overall_hits::total        45831097                       # number of overall hits
system.cpu.dcache.demand_misses::.cpu.data      2975716                       # number of demand (read+write) misses
system.cpu.dcache.demand_misses::total        2975716                       # number of demand (read+write) misses
system.cpu.dcache.overall_misses::.cpu.data      2975737                       # number of overall misses
system.cpu.dcache.overall_misses::total       2975737                       # number of overall misses
system.cpu.dcache.demand_miss_latency::.cpu.data 237210910000                       # number of demand (read+write) miss cycles
system.cpu.dcache.demand_miss_latency::total 237210910000                       # number of demand (read+write) miss cycles
system.cpu.dcache.overall_miss_latency::.cpu.data 237210910000                       # number of overall miss cycles
system.cpu.dcache.overall_miss_latency::total 237210910000                       # number of overall miss cycles
system.cpu.dcache.demand_accesses::.cpu.data     48806782                       # number of demand (read+write) accesses
system.cpu.dcache.demand_accesses::total     48806782                       # number of demand (read+write) accesses
system.cpu.dcache.overall_accesses::.cpu.data     48806834                       # number of overall (read+write) accesses
system.cpu.dcache.overall_accesses::total     48806834                       # number of overall (read+write) accesses
system.cpu.dcache.demand_miss_rate::.cpu.data     0.060969                       # miss rate for demand accesses
system.cpu.dcache.demand_miss_rate::total     0.060969                       # miss rate for demand accesses
system.cpu.dcache.overall_miss_rate::.cpu.data     0.060970                       # miss rate for overall accesses
system.cpu.dcache.overall_miss_rate::total     0.060970                       # miss rate for overall accesses
system.cpu.dcache.demand_avg_miss_latency::.cpu.data 79715.574336                       # average overall miss latency
system.cpu.dcache.demand_avg_miss_latency::total 79715.574336                       # average overall miss latency
system.cpu.dcache.overall_avg_miss_latency::.cpu.data 79715.011777                       # average overall miss latency
system.cpu.dcache.overall_avg_miss_latency::total 79715.011777                       # average overall miss latency
system.cpu.dcache.blocked_cycles::no_mshrs            0                       # number of cycles access was blocked
system.cpu.dcache.blocked_cycles::no_targets            0                       # number of cycles access was blocked
system.cpu.dcache.blocked::no_mshrs                 0                       # number of cycles access was blocked
system.cpu.dcache.blocked::no_targets               0                       # number of cycles access was blocked
system.cpu.dcache.avg_blocked_cycles::no_mshrs          nan                       # average number of cycles each access was blocked
system.cpu.dcache.avg_blocked_cycles::no_targets          nan                       # average number of cycles each access was blocked
system.cpu.dcache.writebacks::.writebacks      1485782                       # number of writebacks
system.cpu.dcache.writebacks::total           1485782                       # number of writebacks
system.cpu.dcache.demand_mshr_hits::.cpu.data      1487793                       # number of demand (read+write) MSHR hits
system.cpu.dcache.demand_mshr_hits::total      1487793                       # number of demand (read+write) MSHR hits
system.cpu.dcache.overall_mshr_hits::.cpu.data      1487793                       # number of overall MSHR hits
system.cpu.dcache.overall_mshr_hits::total      1487793                       # number of overall MSHR hits
system.cpu.dcache.demand_mshr_misses::.cpu.data      1487923                       # number of demand (read+write) MSHR misses
system.cpu.dcache.demand_mshr_misses::total      1487923                       # number of demand (read+write) MSHR misses
system.cpu.dcache.overall_mshr_misses::.cpu.data      1487939                       # number of overall MSHR misses
system.cpu.dcache.overall_mshr_misses::total      1487939                       # number of overall MSHR misses
system.cpu.dcache.demand_mshr_miss_latency::.cpu.data 121064974500                       # number of demand (read+write) MSHR miss cycles
system.cpu.dcache.demand_mshr_miss_latency::total 121064974500                       # number of demand (read+write) MSHR miss cycles
system.cpu.dcache.overall_mshr_miss_latency::.cpu.data 121066249500                       # number of overall MSHR miss cycles
system.cpu.dcache.overall_mshr_miss_latency::total 121066249500                       # number of overall MSHR miss cycles
system.cpu.dcache.demand_mshr_miss_rate::.cpu.data     0.030486                       # mshr miss rate for demand accesses
system.cpu.dcache.demand_mshr_miss_rate::total     0.030486                       # mshr miss rate for demand accesses
system.cpu.dcache.overall_mshr_miss_rate::.cpu.data     0.030486                       # mshr miss rate for overall accesses
system.cpu.dcache.overall_mshr_miss_rate::total     0.030486                       # mshr miss rate for overall accesses
system.cpu.dcache.demand_avg_mshr_miss_latency::.cpu.data 81365.080384                       # average overall mshr miss latency
system.cpu.dcache.demand_avg_mshr_miss_latency::total 81365.080384                       # average overall mshr miss latency
system.cpu.dcache.overall_avg_mshr_miss_latency::.cpu.data 81365.062345                       # average overall mshr miss latency
system.cpu.dcache.overall_avg_mshr_miss_latency::total 81365.062345                       # average overall mshr miss latency
system.cpu.dcache.replacements                1485891                       # number of replacements
system.cpu.dcache.ReadReq_hits::.cpu.data     35710680                       # number of ReadReq hits
system.cpu.dcache.ReadReq_hits::total        35710680                       # number of ReadReq hits
system.cpu.dcache.ReadReq_misses::.cpu.data          117                       # number of ReadReq misses
system.cpu.dcache.ReadReq_misses::total           117                       # number of ReadReq misses
system.cpu.dcache.ReadReq_miss_latency::.cpu.data      8610000                       # number of ReadReq miss cycles
system.cpu.dcache.ReadReq_miss_latency::total      8610000                       # number of ReadReq miss cycles
system.cpu.dcache.ReadReq_accesses::.cpu.data     35710797                       # number of ReadReq accesses(hits+misses)
system.cpu.dcache.ReadReq_accesses::total     35710797                       # number of ReadReq accesses(hits+misses)
system.cpu.dcache.ReadReq_miss_rate::.cpu.data     0.000003                       # miss rate for ReadReq accesses
system.cpu.dcache.ReadReq_miss_rate::total     0.000003                       # miss rate for ReadReq accesses
system.cpu.dcache.ReadReq_avg_miss_latency::.cpu.data 73589.743590                       # average ReadReq miss latency
system.cpu.dcache.ReadReq_avg_miss_latency::total 73589.743590                       # average ReadReq miss latency
system.cpu.dcache.ReadReq_mshr_hits::.cpu.data            5                       # number of ReadReq MSHR hits
system.cpu.dcache.ReadReq_mshr_hits::total            5                       # number of ReadReq MSHR hits
system.cpu.dcache.ReadReq_mshr_misses::.cpu.data          112                       # number of ReadReq MSHR misses
system.cpu.dcache.ReadReq_mshr_misses::total          112                       # number of ReadReq MSHR misses
system.cpu.dcache.ReadReq_mshr_miss_latency::.cpu.data      8078000                       # number of ReadReq MSHR miss cycles
system.cpu.dcache.ReadReq_mshr_miss_latency::total      8078000                       # number of ReadReq MSHR miss cycles
system.cpu.dcache.ReadReq_mshr_miss_rate::.cpu.data     0.000003                       # mshr miss rate for ReadReq accesses
system.cpu.dcache.ReadReq_mshr_miss_rate::total     0.000003                       # mshr miss rate for ReadReq accesses
system.cpu.dcache.ReadReq_avg_mshr_miss_latency::.cpu.data        72125                       # average ReadReq mshr miss latency
system.cpu.dcache.ReadReq_avg_mshr_miss_latency::total        72125                       # average ReadReq mshr miss latency
system.cpu.dcache.WriteReq_hits::.cpu.data     10120386                       # number of WriteReq hits
system.cpu.dcache.WriteReq_hits::total       10120386                       # number of WriteReq hits
system.cpu.dcache.WriteReq_misses::.cpu.data      2975599                       # number of WriteReq misses
system.cpu.dcache.WriteReq_misses::total      2975599                       # number of WriteReq misses
system.cpu.dcache.WriteReq_miss_latency::.cpu.data 237202300000                       # number of WriteReq miss cycles
system.cpu.dcache.WriteReq_miss_latency::total 237202300000                       # number of WriteReq miss cycles
system.cpu.dcache.WriteReq_accesses::.cpu.data     13095985                       # number of WriteReq accesses(hits+misses)
system.cpu.dcache.WriteReq_accesses::total     13095985                       # number of WriteReq accesses(hits+misses)
system.cpu.dcache.WriteReq_miss_rate::.cpu.data     0.227215                       # miss rate for WriteReq accesses
system.cpu.dcache.WriteReq_miss_rate::total     0.227215                       # miss rate for WriteReq accesses
system.cpu.dcache.WriteReq_avg_miss_latency::.cpu.data 79715.815202                       # average WriteReq miss latency
system.cpu.dcache.WriteReq_avg_miss_latency::total 79715.815202                       # average WriteReq miss latency
system.cpu.dcache.WriteReq_mshr_hits::.cpu.data      1487788                       # number of WriteReq MSHR hits
system.cpu.dcache.WriteReq_mshr_hits::total      1487788                       # number of WriteReq MSHR hits
system.cpu.dcache.WriteReq_mshr_misses::.cpu.data      1487811                       # number of WriteReq MSHR misses
system.cpu.dcache.WriteReq_mshr_misses::total      1487811                       # number of WriteReq MSHR misses
system.cpu.dcache.WriteReq_mshr_miss_latency::.cpu.data 121056896500                       # number of WriteReq MSHR miss cycles
system.cpu.dcache.WriteReq_mshr_miss_latency::total 121056896500                       # number of WriteReq MSHR miss cycles
system.cpu.dcache.WriteReq_mshr_miss_rate::.cpu.data     0.113608                       # mshr miss rate for WriteReq accesses
system.cpu.dcache.WriteReq_mshr_miss_rate::total     0.113608                       # mshr miss rate for WriteReq accesses
system.cpu.dcache.WriteReq_avg_mshr_miss_latency::.cpu.data 81365.775962                       # average WriteReq mshr miss latency
system.cpu.dcache.WriteReq_avg_mshr_miss_latency::total 81365.775962                       # average WriteReq mshr miss latency
system.cpu.dcache.SoftPFReq_hits::.cpu.data           31                       # number of SoftPFReq hits
system.cpu.dcache.SoftPFReq_hits::total            31                       # number of SoftPFReq hits
system.cpu.dcache.SoftPFReq_misses::.cpu.data           21                       # number of SoftPFReq misses
system.cpu.dcache.SoftPFReq_misses::total           21                       # number of SoftPFReq misses
system.cpu.dcache.SoftPFReq_accesses::.cpu.data           52                       # number of SoftPFReq accesses(hits+misses)
system.cpu.dcache.SoftPFReq_accesses::total           52                       # number of SoftPFReq accesses(hits+misses)
system.cpu.dcache.SoftPFReq_miss_rate::.cpu.data     0.403846                       # miss rate for SoftPFReq accesses
system.cpu.dcache.SoftPFReq_miss_rate::total     0.403846                       # miss rate for SoftPFReq accesses
system.cpu.dcache.SoftPFReq_mshr_misses::.cpu.data           16                       # number of SoftPFReq MSHR misses
system.cpu.dcache.SoftPFReq_mshr_misses::total           16                       # number of SoftPFReq MSHR misses
system.cpu.dcache.SoftPFReq_mshr_miss_latency::.cpu.data      1275000                       # number of SoftPFReq MSHR miss cycles
system.cpu.dcache.SoftPFReq_mshr_miss_latency::total      1275000                       # number of SoftPFReq MSHR miss cycles
system.cpu.dcache.SoftPFReq_mshr_miss_rate::.cpu.data     0.307692                       # mshr miss rate for SoftPFReq accesses
system.cpu.dcache.SoftPFReq_mshr_miss_rate::total     0.307692                       # mshr miss rate for SoftPFReq accesses
system.cpu.dcache.SoftPFReq_avg_mshr_miss_latency::.cpu.data 79687.500000                       # average SoftPFReq mshr miss latency
system.cpu.dcache.SoftPFReq_avg_mshr_miss_latency::total 79687.500000                       # average SoftPFReq mshr miss latency
system.cpu.dcache.LoadLockedReq_hits::.cpu.data           14                       # number of LoadLockedReq hits
system.cpu.dcache.LoadLockedReq_hits::total           14                       # number of LoadLockedReq hits
system.cpu.dcache.LoadLockedReq_accesses::.cpu.data           14                       # number of LoadLockedReq accesses(hits+misses)
system.cpu.dcache.LoadLockedReq_accesses::total           14                       # number of LoadLockedReq accesses(hits+misses)
system.cpu.dcache.StoreCondReq_hits::.cpu.data           14                       # number of StoreCondReq hits
system.cpu.dcache.StoreCondReq_hits::total           14                       # number of StoreCondReq hits
system.cpu.dcache.StoreCondReq_accesses::.cpu.data           14                       # number of StoreCondReq accesses(hits+misses)
system.cpu.dcache.StoreCondReq_accesses::total           14                       # number of StoreCondReq accesses(hits+misses)
system.cpu.dcache.tags.pwrStateResidencyTicks::UNDEFINED 174671140000                       # Cumulative time (in ticks) in various power states
system.cpu.dcache.tags.tagsinuse          2046.181968                       # Cycle average of tags in use
system.cpu.dcache.tags.total_refs            47319064                       # Total number of references to valid blocks.
system.cpu.dcache.tags.sampled_refs           1487939                       # Sample count of references to valid blocks.
system.cpu.dcache.tags.avg_refs             31.801750                       # Average number of references to valid blocks.
system.cpu.dcache.tags.warmup_cycle            176500                       # Cycle when the warmup percentage was hit.
system.cpu.dcache.tags.occ_blocks::.cpu.data  2046.181968                       # Average occupied blocks per requestor
system.cpu.dcache.tags.occ_percent::.cpu.data     0.999112                       # Average percentage of cache occupancy
system.cpu.dcache.tags.occ_percent::total     0.999112                       # Average percentage of cache occupancy
system.cpu.dcache.tags.occ_task_id_blocks::1024         2048                       # Occupied blocks per task id
system.cpu.dcache.tags.age_task_id_blocks_1024::0           83                       # Occupied blocks per task id
system.cpu.dcache.tags.age_task_id_blocks_1024::1          767                       # Occupied blocks per task id
system.cpu.dcache.tags.age_task_id_blocks_1024::2         1196                       # Occupied blocks per task id
system.cpu.dcache.tags.age_task_id_blocks_1024::4            2                       # Occupied blocks per task id
system.cpu.dcache.tags.occ_task_id_percent::1024            1                       # Percentage of cache occupancy per task id
system.cpu.dcache.tags.tag_accesses          99101663                       # Number of tag accesses
system.cpu.dcache.tags.data_accesses         99101663                       # Number of data accesses
system.cpu.itb.walker.pwrStateResidencyTicks::UNDEFINED 174671140000                       # Cumulative time (in ticks) in various power states
system.cpu.itb.stage2_mmu.stage2_tlb.walker.pwrStateResidencyTicks::UNDEFINED 174671140000                       # Cumulative time (in ticks) in various power states

---------- End Simulation Statistics   ----------
