
---------- Begin Simulation Statistics ----------
final_tick                                64923859500                       # Number of ticks from beginning of simulation (restored from checkpoints and never reset)
host_inst_rate                                 227904                       # Simulator instruction rate (inst/s)
host_mem_usage                                 684956                       # Number of bytes of host memory used
host_op_rate                                   249399                       # Simulator op (including micro ops) rate (op/s)
host_seconds                                   438.78                       # Real time elapsed on the host
host_tick_rate                              147963855                       # Simulator tick rate (ticks/s)
sim_freq                                 1000000000000                       # Frequency of simulated ticks
sim_insts                                   100000001                       # Number of instructions simulated
sim_ops                                     109431937                       # Number of ops (including micro ops) simulated
sim_seconds                                  0.064924                       # Number of seconds simulated
sim_ticks                                 64923859500                       # Number of ticks simulated
system.cpu.branchPred.BTBCorrect                    0                       # Number of correct BTB predictions (this stat may not work properly.
system.cpu.branchPred.BTBHitPct             86.970809                       # BTB Hit Percentage
system.cpu.branchPred.BTBHits                 8735315                       # Number of BTB hits
system.cpu.branchPred.BTBLookups             10043962                       # Number of BTB lookups
system.cpu.branchPred.RASInCorrect                350                       # Number of incorrect RAS predictions.
system.cpu.branchPred.condIncorrect            152061                       # Number of conditional branches incorrect
system.cpu.branchPred.condPredicted          16614714                       # Number of conditional branches predicted
system.cpu.branchPred.indirectHits             300033                       # Number of indirect target hits.
system.cpu.branchPred.indirectLookups          610132                       # Number of indirect predictor lookups.
system.cpu.branchPred.indirectMisses           310099                       # Number of indirect misses.
system.cpu.branchPred.lookups                20722100                       # Number of BP lookups
system.cpu.branchPred.usedRAS                 1050640                       # Number of times the RAS was used to get a target.
system.cpu.branchPredindirectMispredicted         1113                       # Number of mispredicted indirect branches.
system.cpu.committedInsts                   100000001                       # Number of instructions committed
system.cpu.committedOps                     109431937                       # Number of ops (including micro ops) committed
system.cpu.cpi                               1.298477                       # CPI: cycles per instruction
system.cpu.discardedOps                        705381                       # Number of ops (including micro ops) which were discarded before commit
system.cpu.dtb.accesses                             0                       # DTB accesses
system.cpu.dtb.align_faults                         0                       # Number of TLB faults due to alignment restrictions
system.cpu.dtb.domain_faults                        0                       # Number of TLB faults due to domain restrictions
system.cpu.dtb.flush_entries                        0                       # Number of entries that have been flushed from TLB
system.cpu.dtb.flush_tlb                            0                       # Number of times complete TLB was flushed
system.cpu.dtb.flush_tlb_asid                       0                       # Number of times TLB was flushed by ASID
system.cpu.dtb.flush_tlb_mva                        0                       # Number of times TLB was flushed by MVA
system.cpu.dtb.flush_tlb_mva_asid                   0                       # Number of times TLB was flushed by MVA & ASID
system.cpu.dtb.hits                                 0                       # DTB hits
system.cpu.dtb.inst_accesses                        0                       # ITB inst accesses
system.cpu.dtb.inst_hits                            0                       # ITB inst hits
system.cpu.dtb.inst_misses                          0                       # ITB inst misses
system.cpu.dtb.misses                               0                       # DTB misses
system.cpu.dtb.perms_faults                         0                       # Number of TLB faults due to permissions restrictions
system.cpu.dtb.prefetch_faults                      0                       # Number of TLB faults due to prefetch
system.cpu.dtb.read_accesses                        0                       # DTB read accesses
system.cpu.dtb.read_hits                            0                       # DTB read hits
system.cpu.dtb.read_misses                          0                       # DTB read misses
system.cpu.dtb.stage2_mmu.stage2_tlb.accesses            0                       # DTB accesses
system.cpu.dtb.stage2_mmu.stage2_tlb.align_faults            0                       # Number of TLB faults due to alignment restrictions
system.cpu.dtb.stage2_mmu.stage2_tlb.domain_faults            0                       # Number of TLB faults due to domain restrictions
system.cpu.dtb.stage2_mmu.stage2_tlb.flush_entries            0                       # Number of entries that have been flushed from TLB
system.cpu.dtb.stage2_mmu.stage2_tlb.flush_tlb            0                       # Number of times complete TLB was flushed
system.cpu.dtb.stage2_mmu.stage2_tlb.flush_tlb_asid            0                       # Number of times TLB was flushed by ASID
system.cpu.dtb.stage2_mmu.stage2_tlb.flush_tlb_mva            0                       # Number of times TLB was flushed by MVA
system.cpu.dtb.stage2_mmu.stage2_tlb.flush_tlb_mva_asid            0                       # Number of times TLB was flushed by MVA & ASID
system.cpu.dtb.stage2_mmu.stage2_tlb.hits            0                       # DTB hits
system.cpu.dtb.stage2_mmu.stage2_tlb.inst_accesses            0                       # ITB inst accesses
system.cpu.dtb.stage2_mmu.stage2_tlb.inst_hits            0                       # ITB inst hits
system.cpu.dtb.stage2_mmu.stage2_tlb.inst_misses            0                       # ITB inst misses
system.cpu.dtb.stage2_mmu.stage2_tlb.misses            0                       # DTB misses
system.cpu.dtb.stage2_mmu.stage2_tlb.perms_faults            0                       # Number of TLB faults due to permissions restrictions
system.cpu.dtb.stage2_mmu.stage2_tlb.prefetch_faults            0                       # Number of TLB faults due to prefetch
system.cpu.dtb.stage2_mmu.stage2_tlb.read_accesses            0                       # DTB read accesses
system.cpu.dtb.stage2_mmu.stage2_tlb.read_hits            0                       # DTB read hits
system.cpu.dtb.stage2_mmu.stage2_tlb.read_misses            0                       # DTB read misses
system.cpu.dtb.stage2_mmu.stage2_tlb.walker.walkRequestOrigin_Requested::Data            0                       # Table walker requests started/completed, data/inst
system.cpu.dtb.stage2_mmu.stage2_tlb.walker.walkRequestOrigin_Requested::Inst            0                       # Table walker requests started/completed, data/inst
system.cpu.dtb.stage2_mmu.stage2_tlb.walker.walkRequestOrigin_Requested::total            0                       # Table walker requests started/completed, data/inst
system.cpu.dtb.stage2_mmu.stage2_tlb.walker.walkRequestOrigin_Completed::Data            0                       # Table walker requests started/completed, data/inst
system.cpu.dtb.stage2_mmu.stage2_tlb.walker.walkRequestOrigin_Completed::Inst            0                       # Table walker requests started/completed, data/inst
system.cpu.dtb.stage2_mmu.stage2_tlb.walker.walkRequestOrigin_Completed::total            0                       # Table walker requests started/completed, data/inst
system.cpu.dtb.stage2_mmu.stage2_tlb.walker.walkRequestOrigin::total            0                       # Table walker requests started/completed, data/inst
system.cpu.dtb.stage2_mmu.stage2_tlb.walker.walks            0                       # Table walker walks requested
system.cpu.dtb.stage2_mmu.stage2_tlb.write_accesses            0                       # DTB write accesses
system.cpu.dtb.stage2_mmu.stage2_tlb.write_hits            0                       # DTB write hits
system.cpu.dtb.stage2_mmu.stage2_tlb.write_misses            0                       # DTB write misses
system.cpu.dtb.walker.walkRequestOrigin_Requested::Data            0                       # Table walker requests started/completed, data/inst
system.cpu.dtb.walker.walkRequestOrigin_Requested::Inst            0                       # Table walker requests started/completed, data/inst
system.cpu.dtb.walker.walkRequestOrigin_Requested::total            0                       # Table walker requests started/completed, data/inst
system.cpu.dtb.walker.walkRequestOrigin_Completed::Data            0                       # Table walker requests started/completed, data/inst
system.cpu.dtb.walker.walkRequestOrigin_Completed::Inst            0                       # Table walker requests started/completed, data/inst
system.cpu.dtb.walker.walkRequestOrigin_Completed::total            0                       # Table walker requests started/completed, data/inst
system.cpu.dtb.walker.walkRequestOrigin::total            0                       # Table walker requests started/completed, data/inst
system.cpu.dtb.walker.walks                         0                       # Table walker walks requested
system.cpu.dtb.write_accesses                       0                       # DTB write accesses
system.cpu.dtb.write_hits                           0                       # DTB write hits
system.cpu.dtb.write_misses                         0                       # DTB write misses
system.cpu.fetch2.amo_instructions                  0                       # Number of memory atomic instructions successfully decoded
system.cpu.fetch2.fp_instructions                   0                       # Number of floating point instructions successfully decoded
system.cpu.fetch2.int_instructions           49893830                       # Number of integer instructions successfully decoded
system.cpu.fetch2.load_instructions          17238017                       # Number of memory load instructions successfully decoded
system.cpu.fetch2.store_instructions         10039528                       # Number of memory store instructions successfully decoded
system.cpu.fetch2.vec_instructions                  0                       # Number of SIMD instructions successfully decoded
system.cpu.idleCycles                        14876142                       # Total number of cycles that the object has spent stopped
system.cpu.ipc                               0.770133                       # IPC: instructions per cycle
system.cpu.itb.accesses                             0                       # DTB accesses
system.cpu.itb.align_faults                         0                       # Number of TLB faults due to alignment restrictions
system.cpu.itb.domain_faults                        0                       # Number of TLB faults due to domain restrictions
system.cpu.itb.flush_entries                        0                       # Number of entries that have been flushed from TLB
system.cpu.itb.flush_tlb                            0                       # Number of times complete TLB was flushed
system.cpu.itb.flush_tlb_asid                       0                       # Number of times TLB was flushed by ASID
system.cpu.itb.flush_tlb_mva                        0                       # Number of times TLB was flushed by MVA
system.cpu.itb.flush_tlb_mva_asid                   0                       # Number of times TLB was flushed by MVA & ASID
system.cpu.itb.hits                                 0                       # DTB hits
system.cpu.itb.inst_accesses                        0                       # ITB inst accesses
system.cpu.itb.inst_hits                            0                       # ITB inst hits
system.cpu.itb.inst_misses                          0                       # ITB inst misses
system.cpu.itb.misses                               0                       # DTB misses
system.cpu.itb.perms_faults                         0                       # Number of TLB faults due to permissions restrictions
system.cpu.itb.prefetch_faults                      0                       # Number of TLB faults due to prefetch
system.cpu.itb.read_accesses                        0                       # DTB read accesses
system.cpu.itb.read_hits                            0                       # DTB read hits
system.cpu.itb.read_misses                          0                       # DTB read misses
system.cpu.itb.stage2_mmu.stage2_tlb.accesses            0                       # DTB accesses
system.cpu.itb.stage2_mmu.stage2_tlb.align_faults            0                       # Number of TLB faults due to alignment restrictions
system.cpu.itb.stage2_mmu.stage2_tlb.domain_faults            0                       # Number of TLB faults due to domain restrictions
system.cpu.itb.stage2_mmu.stage2_tlb.flush_entries            0                       # Number of entries that have been flushed from TLB
system.cpu.itb.stage2_mmu.stage2_tlb.flush_tlb            0                       # Number of times complete TLB was flushed
system.cpu.itb.stage2_mmu.stage2_tlb.flush_tlb_asid            0                       # Number of times TLB was flushed by ASID
system.cpu.itb.stage2_mmu.stage2_tlb.flush_tlb_mva            0                       # Number of times TLB was flushed by MVA
system.cpu.itb.stage2_mmu.stage2_tlb.flush_tlb_mva_asid            0                       # Number of times TLB was flushed by MVA & ASID
system.cpu.itb.stage2_mmu.stage2_tlb.hits            0                       # DTB hits
system.cpu.itb.stage2_mmu.stage2_tlb.inst_accesses            0                       # ITB inst accesses
system.cpu.itb.stage2_mmu.stage2_tlb.inst_hits            0                       # ITB inst hits
system.cpu.itb.stage2_mmu.stage2_tlb.inst_misses            0                       # ITB inst misses
system.cpu.itb.stage2_mmu.stage2_tlb.misses            0                       # DTB misses
system.cpu.itb.stage2_mmu.stage2_tlb.perms_faults            0                       # Number of TLB faults due to permissions restrictions
system.cpu.itb.stage2_mmu.stage2_tlb.prefetch_faults            0                       # Number of TLB faults due to prefetch
system.cpu.itb.stage2_mmu.stage2_tlb.read_accesses            0                       # DTB read accesses
system.cpu.itb.stage2_mmu.stage2_tlb.read_hits            0                       # DTB read hits
system.cpu.itb.stage2_mmu.stage2_tlb.read_misses            0                       # DTB read misses
system.cpu.itb.stage2_mmu.stage2_tlb.walker.walkRequestOrigin_Requested::Data            0                       # Table walker requests started/completed, data/inst
system.cpu.itb.stage2_mmu.stage2_tlb.walker.walkRequestOrigin_Requested::Inst            0                       # Table walker requests started/completed, data/inst
system.cpu.itb.stage2_mmu.stage2_tlb.walker.walkRequestOrigin_Requested::total            0                       # Table walker requests started/completed, data/inst
system.cpu.itb.stage2_mmu.stage2_tlb.walker.walkRequestOrigin_Completed::Data            0                       # Table walker requests started/completed, data/inst
system.cpu.itb.stage2_mmu.stage2_tlb.walker.walkRequestOrigin_Completed::Inst            0                       # Table walker requests started/completed, data/inst
system.cpu.itb.stage2_mmu.stage2_tlb.walker.walkRequestOrigin_Completed::total            0                       # Table walker requests started/completed, data/inst
system.cpu.itb.stage2_mmu.stage2_tlb.walker.walkRequestOrigin::total            0                       # Table walker requests started/completed, data/inst
system.cpu.itb.stage2_mmu.stage2_tlb.walker.walks            0                       # Table walker walks requested
system.cpu.itb.stage2_mmu.stage2_tlb.write_accesses            0                       # DTB write accesses
system.cpu.itb.stage2_mmu.stage2_tlb.write_hits            0                       # DTB write hits
system.cpu.itb.stage2_mmu.stage2_tlb.write_misses            0                       # DTB write misses
system.cpu.itb.walker.walkRequestOrigin_Requested::Data            0                       # Table walker requests started/completed, data/inst
system.cpu.itb.walker.walkRequestOrigin_Requested::Inst            0                       # Table walker requests started/completed, data/inst
system.cpu.itb.walker.walkRequestOrigin_Requested::total            0                       # Table walker requests started/completed, data/inst
system.cpu.itb.walker.walkRequestOrigin_Completed::Data            0                       # Table walker requests started/completed, data/inst
system.cpu.itb.walker.walkRequestOrigin_Completed::Inst            0                       # Table walker requests started/completed, data/inst
system.cpu.itb.walker.walkRequestOrigin_Completed::total            0                       # Table walker requests started/completed, data/inst
system.cpu.itb.walker.walkRequestOrigin::total            0                       # Table walker requests started/completed, data/inst
system.cpu.itb.walker.walks                         0                       # Table walker walks requested
system.cpu.itb.write_accesses                       0                       # DTB write accesses
system.cpu.itb.write_hits                           0                       # DTB write hits
system.cpu.itb.write_misses                         0                       # DTB write misses
system.cpu.numCycles                        129847719                       # number of cpu cycles simulated
system.cpu.numFetchSuspends                         0                       # Number of times Execute suspended instruction fetching
system.cpu.numWorkItemsCompleted                    0                       # number of work items this cpu completed
system.cpu.numWorkItemsStarted                      0                       # number of work items this cpu started
system.cpu.op_class_0::No_OpClass                   0      0.00%      0.00% # Class of committed instruction
system.cpu.op_class_0::IntAlu                72955303     66.67%     66.67% # Class of committed instruction
system.cpu.op_class_0::IntMult                 568365      0.52%     67.19% # Class of committed instruction
system.cpu.op_class_0::IntDiv                       0      0.00%     67.19% # Class of committed instruction
system.cpu.op_class_0::FloatAdd                     0      0.00%     67.19% # Class of committed instruction
system.cpu.op_class_0::FloatCmp                     0      0.00%     67.19% # Class of committed instruction
system.cpu.op_class_0::FloatCvt                     0      0.00%     67.19% # Class of committed instruction
system.cpu.op_class_0::FloatMult                    0      0.00%     67.19% # Class of committed instruction
system.cpu.op_class_0::FloatMultAcc                 0      0.00%     67.19% # Class of committed instruction
system.cpu.op_class_0::FloatDiv                     0      0.00%     67.19% # Class of committed instruction
system.cpu.op_class_0::FloatMisc                    0      0.00%     67.19% # Class of committed instruction
system.cpu.op_class_0::FloatSqrt                    0      0.00%     67.19% # Class of committed instruction
system.cpu.op_class_0::SimdAdd                 241252      0.22%     67.41% # Class of committed instruction
system.cpu.op_class_0::SimdAddAcc                   0      0.00%     67.41% # Class of committed instruction
system.cpu.op_class_0::SimdAlu                 154720      0.14%     67.55% # Class of committed instruction
system.cpu.op_class_0::SimdCmp                 120626      0.11%     67.66% # Class of committed instruction
system.cpu.op_class_0::SimdCvt                      0      0.00%     67.66% # Class of committed instruction
system.cpu.op_class_0::SimdMisc                 44544      0.04%     67.70% # Class of committed instruction
system.cpu.op_class_0::SimdMult                     0      0.00%     67.70% # Class of committed instruction
system.cpu.op_class_0::SimdMultAcc                  0      0.00%     67.70% # Class of committed instruction
system.cpu.op_class_0::SimdShift                    0      0.00%     67.70% # Class of committed instruction
system.cpu.op_class_0::SimdShiftAcc                 0      0.00%     67.70% # Class of committed instruction
system.cpu.op_class_0::SimdDiv                      0      0.00%     67.70% # Class of committed instruction
system.cpu.op_class_0::SimdSqrt                     0      0.00%     67.70% # Class of committed instruction
system.cpu.op_class_0::SimdFloatAdd                 0      0.00%     67.70% # Class of committed instruction
system.cpu.op_class_0::SimdFloatAlu                 0      0.00%     67.70% # Class of committed instruction
system.cpu.op_class_0::SimdFloatCmp                 0      0.00%     67.70% # Class of committed instruction
system.cpu.op_class_0::SimdFloatCvt                 0      0.00%     67.70% # Class of committed instruction
system.cpu.op_class_0::SimdFloatDiv                 0      0.00%     67.70% # Class of committed instruction
system.cpu.op_class_0::SimdFloatMisc           166465      0.15%     67.85% # Class of committed instruction
system.cpu.op_class_0::SimdFloatMult                0      0.00%     67.85% # Class of committed instruction
system.cpu.op_class_0::SimdFloatMultAcc             0      0.00%     67.85% # Class of committed instruction
system.cpu.op_class_0::SimdFloatSqrt                0      0.00%     67.85% # Class of committed instruction
system.cpu.op_class_0::SimdReduceAdd                0      0.00%     67.85% # Class of committed instruction
system.cpu.op_class_0::SimdReduceAlu                0      0.00%     67.85% # Class of committed instruction
system.cpu.op_class_0::SimdReduceCmp                0      0.00%     67.85% # Class of committed instruction
system.cpu.op_class_0::SimdFloatReduceAdd            0      0.00%     67.85% # Class of committed instruction
system.cpu.op_class_0::SimdFloatReduceCmp            0      0.00%     67.85% # Class of committed instruction
system.cpu.op_class_0::SimdAes                      0      0.00%     67.85% # Class of committed instruction
system.cpu.op_class_0::SimdAesMix                   0      0.00%     67.85% # Class of committed instruction
system.cpu.op_class_0::SimdSha1Hash                 0      0.00%     67.85% # Class of committed instruction
system.cpu.op_class_0::SimdSha1Hash2                0      0.00%     67.85% # Class of committed instruction
system.cpu.op_class_0::SimdSha256Hash               0      0.00%     67.85% # Class of committed instruction
system.cpu.op_class_0::SimdSha256Hash2              0      0.00%     67.85% # Class of committed instruction
system.cpu.op_class_0::SimdShaSigma2                0      0.00%     67.85% # Class of committed instruction
system.cpu.op_class_0::SimdShaSigma3                0      0.00%     67.85% # Class of committed instruction
system.cpu.op_class_0::SimdPredAlu                  0      0.00%     67.85% # Class of committed instruction
system.cpu.op_class_0::MemRead               20646465     18.87%     86.72% # Class of committed instruction
system.cpu.op_class_0::MemWrite              14534197     13.28%    100.00% # Class of committed instruction
system.cpu.op_class_0::FloatMemRead                 0      0.00%    100.00% # Class of committed instruction
system.cpu.op_class_0::FloatMemWrite                0      0.00%    100.00% # Class of committed instruction
system.cpu.op_class_0::IprAccess                    0      0.00%    100.00% # Class of committed instruction
system.cpu.op_class_0::InstPrefetch                 0      0.00%    100.00% # Class of committed instruction
system.cpu.op_class_0::total                109431937                       # Class of committed instruction
system.cpu.tickCycles                       114971577                       # Number of cycles that the object actually ticked
system.cpu.workload.numSyscalls                    86                       # Number of system calls
system.membus.snoop_filter.hit_multi_requests            0                       # Number of requests hitting in the snoop filter with multiple (>1) holders of the requested data.
system.membus.snoop_filter.hit_multi_snoops            0                       # Number of snoops hitting in the snoop filter with multiple (>1) holders of the requested data.
system.membus.snoop_filter.hit_single_requests         1837                       # Number of requests hitting in the snoop filter with a single holder of the requested data.
system.membus.snoop_filter.hit_single_snoops            0                       # Number of snoops hitting in the snoop filter with a single holder of the requested data.
system.membus.snoop_filter.tot_requests         11962                       # Total number of requests made to the snoop filter.
system.membus.snoop_filter.tot_snoops               0                       # Total number of snoops made to the snoop filter.
system.tol2bus.snoop_filter.hit_multi_requests        90060                       # Number of requests hitting in the snoop filter with multiple (>1) holders of the requested data.
system.tol2bus.snoop_filter.hit_multi_snoops            0                       # Number of snoops hitting in the snoop filter with multiple (>1) holders of the requested data.
system.tol2bus.snoop_filter.hit_single_requests       880793                       # Number of requests hitting in the snoop filter with a single holder of the requested data.
system.tol2bus.snoop_filter.hit_single_snoops           98                       # Number of snoops hitting in the snoop filter with a single holder of the requested data.
system.tol2bus.snoop_filter.tot_requests      1761952                       # Total number of requests made to the snoop filter.
system.tol2bus.snoop_filter.tot_snoops             98                       # Total number of snoops made to the snoop filter.
system.membus.pwrStateResidencyTicks::UNDEFINED  64923859500                       # Cumulative time (in ticks) in various power states
system.membus.trans_dist::ReadResp                412                       # Transaction distribution
system.membus.trans_dist::WritebackDirty         1714                       # Transaction distribution
system.membus.trans_dist::CleanEvict              123                       # Transaction distribution
system.membus.trans_dist::ReadExReq              9713                       # Transaction distribution
system.membus.trans_dist::ReadExResp             9713                       # Transaction distribution
system.membus.trans_dist::ReadSharedReq           412                       # Transaction distribution
system.membus.pkt_count_system.l2.mem_side::system.mem_ctrls.port        22087                       # Packet count per connected master and slave (bytes)
system.membus.pkt_count::total                  22087                       # Packet count per connected master and slave (bytes)
system.membus.pkt_size_system.l2.mem_side::system.mem_ctrls.port      3030784                       # Cumulative packet size per connected master and slave (bytes)
system.membus.pkt_size::total                 3030784                       # Cumulative packet size per connected master and slave (bytes)
system.membus.snoops                                0                       # Total snoops (count)
system.membus.snoopTraffic                          0                       # Total snoop traffic (bytes)
system.membus.snoop_fanout::samples             10125                       # Request fanout histogram
system.membus.snoop_fanout::mean                    0                       # Request fanout histogram
system.membus.snoop_fanout::stdev                   0                       # Request fanout histogram
system.membus.snoop_fanout::underflows              0      0.00%      0.00% # Request fanout histogram
system.membus.snoop_fanout::0                   10125    100.00%    100.00% # Request fanout histogram
system.membus.snoop_fanout::1                       0      0.00%    100.00% # Request fanout histogram
system.membus.snoop_fanout::overflows               0      0.00%    100.00% # Request fanout histogram
system.membus.snoop_fanout::min_value               0                       # Request fanout histogram
system.membus.snoop_fanout::max_value               0                       # Request fanout histogram
system.membus.snoop_fanout::total               10125                       # Request fanout histogram
system.membus.respLayer1.occupancy          176765000                       # Layer occupancy (ticks)
system.membus.respLayer1.utilization              0.3                       # Layer utilization (%)
system.membus.reqLayer0.occupancy            42076000                       # Layer occupancy (ticks)
system.membus.reqLayer0.utilization               0.1                       # Layer utilization (%)
system.tol2bus.pwrStateResidencyTicks::UNDEFINED  64923859500                       # Cumulative time (in ticks) in various power states
system.tol2bus.trans_dist::ReadResp            870373                       # Transaction distribution
system.tol2bus.trans_dist::WritebackDirty        30565                       # Transaction distribution
system.tol2bus.trans_dist::WritebackClean       847178                       # Transaction distribution
system.tol2bus.trans_dist::CleanEvict            4979                       # Transaction distribution
system.tol2bus.trans_dist::ReadExReq            10792                       # Transaction distribution
system.tol2bus.trans_dist::ReadExResp           10792                       # Transaction distribution
system.tol2bus.trans_dist::ReadCleanReq        847300                       # Transaction distribution
system.tol2bus.trans_dist::ReadSharedReq        23073                       # Transaction distribution
system.tol2bus.pkt_count_system.cpu.icache.mem_side::system.l2.cpu_side      2541778                       # Packet count per connected master and slave (bytes)
system.tol2bus.pkt_count_system.cpu.dcache.mem_side::system.l2.cpu_side       101339                       # Packet count per connected master and slave (bytes)
system.tol2bus.pkt_count::total               2643117                       # Packet count per connected master and slave (bytes)
system.tol2bus.pkt_size_system.cpu.icache.mem_side::system.l2.cpu_side    433786368                       # Cumulative packet size per connected master and slave (bytes)
system.tol2bus.pkt_size_system.cpu.dcache.mem_side::system.l2.cpu_side     16055296                       # Cumulative packet size per connected master and slave (bytes)
system.tol2bus.pkt_size::total              449841664                       # Cumulative packet size per connected master and slave (bytes)
system.tol2bus.snoops                            1935                       # Total snoops (count)
system.tol2bus.snoopTraffic                    438784                       # Total snoop traffic (bytes)
system.tol2bus.snoop_fanout::samples           883100                       # Request fanout histogram
system.tol2bus.snoop_fanout::mean            0.102099                       # Request fanout histogram
system.tol2bus.snoop_fanout::stdev           0.302779                       # Request fanout histogram
system.tol2bus.snoop_fanout::underflows             0      0.00%      0.00% # Request fanout histogram
system.tol2bus.snoop_fanout::0                 792936     89.79%     89.79% # Request fanout histogram
system.tol2bus.snoop_fanout::1                  90164     10.21%    100.00% # Request fanout histogram
system.tol2bus.snoop_fanout::2                      0      0.00%    100.00% # Request fanout histogram
system.tol2bus.snoop_fanout::overflows              0      0.00%    100.00% # Request fanout histogram
system.tol2bus.snoop_fanout::min_value              0                       # Request fanout histogram
system.tol2bus.snoop_fanout::max_value              1                       # Request fanout histogram
system.tol2bus.snoop_fanout::total             883100                       # Request fanout histogram
system.tol2bus.reqLayer0.occupancy         4385092000                       # Layer occupancy (ticks)
system.tol2bus.reqLayer0.utilization              6.8                       # Layer utilization (%)
system.tol2bus.respLayer1.occupancy         152394995                       # Layer occupancy (ticks)
system.tol2bus.respLayer1.utilization             0.2                       # Layer utilization (%)
system.tol2bus.respLayer0.occupancy        3812850000                       # Layer occupancy (ticks)
system.tol2bus.respLayer0.utilization             5.9                       # Layer utilization (%)
system.voltage_domain.voltage                       1                       # Voltage in Volts
system.clk_domain.clock                          1000                       # Clock period in ticks
system.l2.pwrStateResidencyTicks::UNDEFINED  64923859500                       # Cumulative time (in ticks) in various power states
system.l2.demand_hits::.cpu.inst               847070                       # number of demand (read+write) hits
system.l2.demand_hits::.cpu.data                23965                       # number of demand (read+write) hits
system.l2.demand_hits::total                   871035                       # number of demand (read+write) hits
system.l2.overall_hits::.cpu.inst              847070                       # number of overall hits
system.l2.overall_hits::.cpu.data               23965                       # number of overall hits
system.l2.overall_hits::total                  871035                       # number of overall hits
system.l2.demand_misses::.cpu.inst                230                       # number of demand (read+write) misses
system.l2.demand_misses::.cpu.data               9900                       # number of demand (read+write) misses
system.l2.demand_misses::total                  10130                       # number of demand (read+write) misses
system.l2.overall_misses::.cpu.inst               230                       # number of overall misses
system.l2.overall_misses::.cpu.data              9900                       # number of overall misses
system.l2.overall_misses::total                 10130                       # number of overall misses
system.l2.demand_miss_latency::.cpu.inst     21790500                       # number of demand (read+write) miss cycles
system.l2.demand_miss_latency::.cpu.data    997124000                       # number of demand (read+write) miss cycles
system.l2.demand_miss_latency::total       1018914500                       # number of demand (read+write) miss cycles
system.l2.overall_miss_latency::.cpu.inst     21790500                       # number of overall miss cycles
system.l2.overall_miss_latency::.cpu.data    997124000                       # number of overall miss cycles
system.l2.overall_miss_latency::total      1018914500                       # number of overall miss cycles
system.l2.demand_accesses::.cpu.inst           847300                       # number of demand (read+write) accesses
system.l2.demand_accesses::.cpu.data            33865                       # number of demand (read+write) accesses
system.l2.demand_accesses::total               881165                       # number of demand (read+write) accesses
system.l2.overall_accesses::.cpu.inst          847300                       # number of overall (read+write) accesses
system.l2.overall_accesses::.cpu.data           33865                       # number of overall (read+write) accesses
system.l2.overall_accesses::total              881165                       # number of overall (read+write) accesses
system.l2.demand_miss_rate::.cpu.inst        0.000271                       # miss rate for demand accesses
system.l2.demand_miss_rate::.cpu.data        0.292337                       # miss rate for demand accesses
system.l2.demand_miss_rate::total            0.011496                       # miss rate for demand accesses
system.l2.overall_miss_rate::.cpu.inst       0.000271                       # miss rate for overall accesses
system.l2.overall_miss_rate::.cpu.data       0.292337                       # miss rate for overall accesses
system.l2.overall_miss_rate::total           0.011496                       # miss rate for overall accesses
system.l2.demand_avg_miss_latency::.cpu.inst 94741.304348                       # average overall miss latency
system.l2.demand_avg_miss_latency::.cpu.data 100719.595960                       # average overall miss latency
system.l2.demand_avg_miss_latency::total 100583.859822                       # average overall miss latency
system.l2.overall_avg_miss_latency::.cpu.inst 94741.304348                       # average overall miss latency
system.l2.overall_avg_miss_latency::.cpu.data 100719.595960                       # average overall miss latency
system.l2.overall_avg_miss_latency::total 100583.859822                       # average overall miss latency
system.l2.blocked_cycles::no_mshrs                  0                       # number of cycles access was blocked
system.l2.blocked_cycles::no_targets                0                       # number of cycles access was blocked
system.l2.blocked::no_mshrs                         0                       # number of cycles access was blocked
system.l2.blocked::no_targets                       0                       # number of cycles access was blocked
system.l2.avg_blocked_cycles::no_mshrs            nan                       # average number of cycles each access was blocked
system.l2.avg_blocked_cycles::no_targets          nan                       # average number of cycles each access was blocked
system.l2.writebacks::.writebacks                1714                       # number of writebacks
system.l2.writebacks::total                      1714                       # number of writebacks
system.l2.demand_mshr_hits::.cpu.data               5                       # number of demand (read+write) MSHR hits
system.l2.demand_mshr_hits::total                   5                       # number of demand (read+write) MSHR hits
system.l2.overall_mshr_hits::.cpu.data              5                       # number of overall MSHR hits
system.l2.overall_mshr_hits::total                  5                       # number of overall MSHR hits
system.l2.demand_mshr_misses::.cpu.inst           230                       # number of demand (read+write) MSHR misses
system.l2.demand_mshr_misses::.cpu.data          9895                       # number of demand (read+write) MSHR misses
system.l2.demand_mshr_misses::total             10125                       # number of demand (read+write) MSHR misses
system.l2.overall_mshr_misses::.cpu.inst          230                       # number of overall MSHR misses
system.l2.overall_mshr_misses::.cpu.data         9895                       # number of overall MSHR misses
system.l2.overall_mshr_misses::total            10125                       # number of overall MSHR misses
system.l2.demand_mshr_miss_latency::.cpu.inst     19490500                       # number of demand (read+write) MSHR miss cycles
system.l2.demand_mshr_miss_latency::.cpu.data    897747000                       # number of demand (read+write) MSHR miss cycles
system.l2.demand_mshr_miss_latency::total    917237500                       # number of demand (read+write) MSHR miss cycles
system.l2.overall_mshr_miss_latency::.cpu.inst     19490500                       # number of overall MSHR miss cycles
system.l2.overall_mshr_miss_latency::.cpu.data    897747000                       # number of overall MSHR miss cycles
system.l2.overall_mshr_miss_latency::total    917237500                       # number of overall MSHR miss cycles
system.l2.demand_mshr_miss_rate::.cpu.inst     0.000271                       # mshr miss rate for demand accesses
system.l2.demand_mshr_miss_rate::.cpu.data     0.292190                       # mshr miss rate for demand accesses
system.l2.demand_mshr_miss_rate::total       0.011490                       # mshr miss rate for demand accesses
system.l2.overall_mshr_miss_rate::.cpu.inst     0.000271                       # mshr miss rate for overall accesses
system.l2.overall_mshr_miss_rate::.cpu.data     0.292190                       # mshr miss rate for overall accesses
system.l2.overall_mshr_miss_rate::total      0.011490                       # mshr miss rate for overall accesses
system.l2.demand_avg_mshr_miss_latency::.cpu.inst 84741.304348                       # average overall mshr miss latency
system.l2.demand_avg_mshr_miss_latency::.cpu.data 90727.337039                       # average overall mshr miss latency
system.l2.demand_avg_mshr_miss_latency::total 90591.358025                       # average overall mshr miss latency
system.l2.overall_avg_mshr_miss_latency::.cpu.inst 84741.304348                       # average overall mshr miss latency
system.l2.overall_avg_mshr_miss_latency::.cpu.data 90727.337039                       # average overall mshr miss latency
system.l2.overall_avg_mshr_miss_latency::total 90591.358025                       # average overall mshr miss latency
system.l2.replacements                           1935                       # number of replacements
system.l2.WritebackDirty_hits::.writebacks        28851                       # number of WritebackDirty hits
system.l2.WritebackDirty_hits::total            28851                       # number of WritebackDirty hits
system.l2.WritebackDirty_accesses::.writebacks        28851                       # number of WritebackDirty accesses(hits+misses)
system.l2.WritebackDirty_accesses::total        28851                       # number of WritebackDirty accesses(hits+misses)
system.l2.WritebackClean_hits::.writebacks       757310                       # number of WritebackClean hits
system.l2.WritebackClean_hits::total           757310                       # number of WritebackClean hits
system.l2.WritebackClean_accesses::.writebacks       757310                       # number of WritebackClean accesses(hits+misses)
system.l2.WritebackClean_accesses::total       757310                       # number of WritebackClean accesses(hits+misses)
system.l2.ReadExReq_hits::.cpu.data              1079                       # number of ReadExReq hits
system.l2.ReadExReq_hits::total                  1079                       # number of ReadExReq hits
system.l2.ReadExReq_misses::.cpu.data            9713                       # number of ReadExReq misses
system.l2.ReadExReq_misses::total                9713                       # number of ReadExReq misses
system.l2.ReadExReq_miss_latency::.cpu.data    977580500                       # number of ReadExReq miss cycles
system.l2.ReadExReq_miss_latency::total     977580500                       # number of ReadExReq miss cycles
system.l2.ReadExReq_accesses::.cpu.data         10792                       # number of ReadExReq accesses(hits+misses)
system.l2.ReadExReq_accesses::total             10792                       # number of ReadExReq accesses(hits+misses)
system.l2.ReadExReq_miss_rate::.cpu.data     0.900019                       # miss rate for ReadExReq accesses
system.l2.ReadExReq_miss_rate::total         0.900019                       # miss rate for ReadExReq accesses
system.l2.ReadExReq_avg_miss_latency::.cpu.data 100646.607639                       # average ReadExReq miss latency
system.l2.ReadExReq_avg_miss_latency::total 100646.607639                       # average ReadExReq miss latency
system.l2.ReadExReq_mshr_misses::.cpu.data         9713                       # number of ReadExReq MSHR misses
system.l2.ReadExReq_mshr_misses::total           9713                       # number of ReadExReq MSHR misses
system.l2.ReadExReq_mshr_miss_latency::.cpu.data    880450500                       # number of ReadExReq MSHR miss cycles
system.l2.ReadExReq_mshr_miss_latency::total    880450500                       # number of ReadExReq MSHR miss cycles
system.l2.ReadExReq_mshr_miss_rate::.cpu.data     0.900019                       # mshr miss rate for ReadExReq accesses
system.l2.ReadExReq_mshr_miss_rate::total     0.900019                       # mshr miss rate for ReadExReq accesses
system.l2.ReadExReq_avg_mshr_miss_latency::.cpu.data 90646.607639                       # average ReadExReq mshr miss latency
system.l2.ReadExReq_avg_mshr_miss_latency::total 90646.607639                       # average ReadExReq mshr miss latency
system.l2.ReadCleanReq_hits::.cpu.inst         847070                       # number of ReadCleanReq hits
system.l2.ReadCleanReq_hits::total             847070                       # number of ReadCleanReq hits
system.l2.ReadCleanReq_misses::.cpu.inst          230                       # number of ReadCleanReq misses
system.l2.ReadCleanReq_misses::total              230                       # number of ReadCleanReq misses
system.l2.ReadCleanReq_miss_latency::.cpu.inst     21790500                       # number of ReadCleanReq miss cycles
system.l2.ReadCleanReq_miss_latency::total     21790500                       # number of ReadCleanReq miss cycles
system.l2.ReadCleanReq_accesses::.cpu.inst       847300                       # number of ReadCleanReq accesses(hits+misses)
system.l2.ReadCleanReq_accesses::total         847300                       # number of ReadCleanReq accesses(hits+misses)
system.l2.ReadCleanReq_miss_rate::.cpu.inst     0.000271                       # miss rate for ReadCleanReq accesses
system.l2.ReadCleanReq_miss_rate::total      0.000271                       # miss rate for ReadCleanReq accesses
system.l2.ReadCleanReq_avg_miss_latency::.cpu.inst 94741.304348                       # average ReadCleanReq miss latency
system.l2.ReadCleanReq_avg_miss_latency::total 94741.304348                       # average ReadCleanReq miss latency
system.l2.ReadCleanReq_mshr_misses::.cpu.inst          230                       # number of ReadCleanReq MSHR misses
system.l2.ReadCleanReq_mshr_misses::total          230                       # number of ReadCleanReq MSHR misses
system.l2.ReadCleanReq_mshr_miss_latency::.cpu.inst     19490500                       # number of ReadCleanReq MSHR miss cycles
system.l2.ReadCleanReq_mshr_miss_latency::total     19490500                       # number of ReadCleanReq MSHR miss cycles
system.l2.ReadCleanReq_mshr_miss_rate::.cpu.inst     0.000271                       # mshr miss rate for ReadCleanReq accesses
system.l2.ReadCleanReq_mshr_miss_rate::total     0.000271                       # mshr miss rate for ReadCleanReq accesses
system.l2.ReadCleanReq_avg_mshr_miss_latency::.cpu.inst 84741.304348                       # average ReadCleanReq mshr miss latency
system.l2.ReadCleanReq_avg_mshr_miss_latency::total 84741.304348                       # average ReadCleanReq mshr miss latency
system.l2.ReadSharedReq_hits::.cpu.data         22886                       # number of ReadSharedReq hits
system.l2.ReadSharedReq_hits::total             22886                       # number of ReadSharedReq hits
system.l2.ReadSharedReq_misses::.cpu.data          187                       # number of ReadSharedReq misses
system.l2.ReadSharedReq_misses::total             187                       # number of ReadSharedReq misses
system.l2.ReadSharedReq_miss_latency::.cpu.data     19543500                       # number of ReadSharedReq miss cycles
system.l2.ReadSharedReq_miss_latency::total     19543500                       # number of ReadSharedReq miss cycles
system.l2.ReadSharedReq_accesses::.cpu.data        23073                       # number of ReadSharedReq accesses(hits+misses)
system.l2.ReadSharedReq_accesses::total         23073                       # number of ReadSharedReq accesses(hits+misses)
system.l2.ReadSharedReq_miss_rate::.cpu.data     0.008105                       # miss rate for ReadSharedReq accesses
system.l2.ReadSharedReq_miss_rate::total     0.008105                       # miss rate for ReadSharedReq accesses
system.l2.ReadSharedReq_avg_miss_latency::.cpu.data 104510.695187                       # average ReadSharedReq miss latency
system.l2.ReadSharedReq_avg_miss_latency::total 104510.695187                       # average ReadSharedReq miss latency
system.l2.ReadSharedReq_mshr_hits::.cpu.data            5                       # number of ReadSharedReq MSHR hits
system.l2.ReadSharedReq_mshr_hits::total            5                       # number of ReadSharedReq MSHR hits
system.l2.ReadSharedReq_mshr_misses::.cpu.data          182                       # number of ReadSharedReq MSHR misses
system.l2.ReadSharedReq_mshr_misses::total          182                       # number of ReadSharedReq MSHR misses
system.l2.ReadSharedReq_mshr_miss_latency::.cpu.data     17296500                       # number of ReadSharedReq MSHR miss cycles
system.l2.ReadSharedReq_mshr_miss_latency::total     17296500                       # number of ReadSharedReq MSHR miss cycles
system.l2.ReadSharedReq_mshr_miss_rate::.cpu.data     0.007888                       # mshr miss rate for ReadSharedReq accesses
system.l2.ReadSharedReq_mshr_miss_rate::total     0.007888                       # mshr miss rate for ReadSharedReq accesses
system.l2.ReadSharedReq_avg_mshr_miss_latency::.cpu.data 95035.714286                       # average ReadSharedReq mshr miss latency
system.l2.ReadSharedReq_avg_mshr_miss_latency::total 95035.714286                       # average ReadSharedReq mshr miss latency
system.l2.tags.pwrStateResidencyTicks::UNDEFINED  64923859500                       # Cumulative time (in ticks) in various power states
system.l2.tags.tagsinuse                  6479.507304                       # Cycle average of tags in use
system.l2.tags.total_refs                     1671887                       # Total number of references to valid blocks.
system.l2.tags.sampled_refs                     10127                       # Sample count of references to valid blocks.
system.l2.tags.avg_refs                    165.092031                       # Average number of references to valid blocks.
system.l2.tags.warmup_cycle                     92000                       # Cycle when the warmup percentage was hit.
system.l2.tags.occ_blocks::.writebacks       1.742762                       # Average occupied blocks per requestor
system.l2.tags.occ_blocks::.cpu.inst       100.595563                       # Average occupied blocks per requestor
system.l2.tags.occ_blocks::.cpu.data      6377.168979                       # Average occupied blocks per requestor
system.l2.tags.occ_percent::.writebacks      0.000213                       # Average percentage of cache occupancy
system.l2.tags.occ_percent::.cpu.inst        0.012280                       # Average percentage of cache occupancy
system.l2.tags.occ_percent::.cpu.data        0.778463                       # Average percentage of cache occupancy
system.l2.tags.occ_percent::total            0.790955                       # Average percentage of cache occupancy
system.l2.tags.occ_task_id_blocks::1024          8192                       # Occupied blocks per task id
system.l2.tags.age_task_id_blocks_1024::1            8                       # Occupied blocks per task id
system.l2.tags.age_task_id_blocks_1024::2           81                       # Occupied blocks per task id
system.l2.tags.age_task_id_blocks_1024::3          837                       # Occupied blocks per task id
system.l2.tags.age_task_id_blocks_1024::4         7266                       # Occupied blocks per task id
system.l2.tags.occ_task_id_percent::1024            1                       # Percentage of cache occupancy per task id
system.l2.tags.tag_accesses                   6697695                       # Number of tag accesses
system.l2.tags.data_accesses                  6697695                       # Number of data accesses
system.cpu_voltage_domain.voltage                   1                       # Voltage in Volts
system.mem_ctrls.pwrStateResidencyTicks::UNDEFINED  64923859500                       # Cumulative time (in ticks) in various power states
system.mem_ctrls.bytes_read::.cpu.inst          58880                       # Number of bytes read from this memory
system.mem_ctrls.bytes_read::.cpu.data        2533120                       # Number of bytes read from this memory
system.mem_ctrls.bytes_read::total            2592000                       # Number of bytes read from this memory
system.mem_ctrls.bytes_inst_read::.cpu.inst        58880                       # Number of instructions bytes read from this memory
system.mem_ctrls.bytes_inst_read::total         58880                       # Number of instructions bytes read from this memory
system.mem_ctrls.bytes_written::.writebacks       438784                       # Number of bytes written to this memory
system.mem_ctrls.bytes_written::total          438784                       # Number of bytes written to this memory
system.mem_ctrls.num_reads::.cpu.inst             230                       # Number of read requests responded to by this memory
system.mem_ctrls.num_reads::.cpu.data            9895                       # Number of read requests responded to by this memory
system.mem_ctrls.num_reads::total               10125                       # Number of read requests responded to by this memory
system.mem_ctrls.num_writes::.writebacks         1714                       # Number of write requests responded to by this memory
system.mem_ctrls.num_writes::total               1714                       # Number of write requests responded to by this memory
system.mem_ctrls.bw_read::.cpu.inst            906908                       # Total read bandwidth from this memory (bytes/s)
system.mem_ctrls.bw_read::.cpu.data          39016781                       # Total read bandwidth from this memory (bytes/s)
system.mem_ctrls.bw_read::total              39923689                       # Total read bandwidth from this memory (bytes/s)
system.mem_ctrls.bw_inst_read::.cpu.inst       906908                       # Instruction read bandwidth from this memory (bytes/s)
system.mem_ctrls.bw_inst_read::total           906908                       # Instruction read bandwidth from this memory (bytes/s)
system.mem_ctrls.bw_write::.writebacks        6758440                       # Write bandwidth from this memory (bytes/s)
system.mem_ctrls.bw_write::total              6758440                       # Write bandwidth from this memory (bytes/s)
system.mem_ctrls.bw_total::.writebacks        6758440                       # Total bandwidth to/from this memory (bytes/s)
system.mem_ctrls.bw_total::.cpu.inst           906908                       # Total bandwidth to/from this memory (bytes/s)
system.mem_ctrls.bw_total::.cpu.data         39016781                       # Total bandwidth to/from this memory (bytes/s)
system.mem_ctrls.bw_total::total             46682129                       # Total bandwidth to/from this memory (bytes/s)
system.mem_ctrls.avgPriority_.writebacks::samples      6856.00                       # Average QoS priority value for accepted requests
system.mem_ctrls.avgPriority_.cpu.inst::samples       920.00                       # Average QoS priority value for accepted requests
system.mem_ctrls.avgPriority_.cpu.data::samples     39580.00                       # Average QoS priority value for accepted requests
system.mem_ctrls.priorityMinLatency      0.000000018750                       # per QoS priority minimum request to response latency (s)
system.mem_ctrls.priorityMaxLatency      0.042691214500                       # per QoS priority maximum request to response latency (s)
system.mem_ctrls.numReadWriteTurnArounds          341                       # Number of turnarounds from READ to WRITE
system.mem_ctrls.numWriteReadTurnArounds          341                       # Number of turnarounds from WRITE to READ
system.mem_ctrls.numStayReadState               68919                       # Number of times bus staying in READ state
system.mem_ctrls.numStayWriteState               6500                       # Number of times bus staying in WRITE state
system.mem_ctrls.readReqs                       10125                       # Number of read requests accepted
system.mem_ctrls.writeReqs                       1714                       # Number of write requests accepted
system.mem_ctrls.readBursts                     40500                       # Number of DRAM read bursts, including those serviced by the write queue
system.mem_ctrls.writeBursts                     6856                       # Number of DRAM write bursts, including those merged in the write queue
system.mem_ctrls.servicedByWrQ                      0                       # Number of DRAM read bursts serviced by the write queue
system.mem_ctrls.mergedWrBursts                     0                       # Number of DRAM write bursts merged with an existing one
system.mem_ctrls.neitherReadNorWriteReqs            0                       # Number of requests that are neither read nor write
system.mem_ctrls.perBankRdBursts::0              2516                       # Per bank write bursts
system.mem_ctrls.perBankRdBursts::1              2400                       # Per bank write bursts
system.mem_ctrls.perBankRdBursts::2              2388                       # Per bank write bursts
system.mem_ctrls.perBankRdBursts::3              2712                       # Per bank write bursts
system.mem_ctrls.perBankRdBursts::4              2724                       # Per bank write bursts
system.mem_ctrls.perBankRdBursts::5              2452                       # Per bank write bursts
system.mem_ctrls.perBankRdBursts::6              2448                       # Per bank write bursts
system.mem_ctrls.perBankRdBursts::7              2504                       # Per bank write bursts
system.mem_ctrls.perBankRdBursts::8              2492                       # Per bank write bursts
system.mem_ctrls.perBankRdBursts::9              2540                       # Per bank write bursts
system.mem_ctrls.perBankRdBursts::10             2544                       # Per bank write bursts
system.mem_ctrls.perBankRdBursts::11             2556                       # Per bank write bursts
system.mem_ctrls.perBankRdBursts::12             2556                       # Per bank write bursts
system.mem_ctrls.perBankRdBursts::13             2500                       # Per bank write bursts
system.mem_ctrls.perBankRdBursts::14             2628                       # Per bank write bursts
system.mem_ctrls.perBankRdBursts::15             2540                       # Per bank write bursts
system.mem_ctrls.perBankWrBursts::0               401                       # Per bank write bursts
system.mem_ctrls.perBankWrBursts::1               304                       # Per bank write bursts
system.mem_ctrls.perBankWrBursts::2               304                       # Per bank write bursts
system.mem_ctrls.perBankWrBursts::3               556                       # Per bank write bursts
system.mem_ctrls.perBankWrBursts::4               632                       # Per bank write bursts
system.mem_ctrls.perBankWrBursts::5               404                       # Per bank write bursts
system.mem_ctrls.perBankWrBursts::6               400                       # Per bank write bursts
system.mem_ctrls.perBankWrBursts::7               440                       # Per bank write bursts
system.mem_ctrls.perBankWrBursts::8               412                       # Per bank write bursts
system.mem_ctrls.perBankWrBursts::9               440                       # Per bank write bursts
system.mem_ctrls.perBankWrBursts::10              428                       # Per bank write bursts
system.mem_ctrls.perBankWrBursts::11              400                       # Per bank write bursts
system.mem_ctrls.perBankWrBursts::12              396                       # Per bank write bursts
system.mem_ctrls.perBankWrBursts::13              412                       # Per bank write bursts
system.mem_ctrls.perBankWrBursts::14              468                       # Per bank write bursts
system.mem_ctrls.perBankWrBursts::15              432                       # Per bank write bursts
system.mem_ctrls.avgRdQLen                       4.01                       # Average read queue length when enqueuing
system.mem_ctrls.avgWrQLen                      22.06                       # Average write queue length when enqueuing
system.mem_ctrls.totQLat                    935913250                       # Total ticks spent queuing
system.mem_ctrls.totBusLat                  202500000                       # Total ticks spent in databus transfers
system.mem_ctrls.totMemAccLat              1695288250                       # Total ticks spent from burst creation until serviced by the DRAM
system.mem_ctrls.avgQLat                     23108.97                       # Average queueing delay per DRAM burst
system.mem_ctrls.avgBusLat                    5000.00                       # Average bus latency per DRAM burst
system.mem_ctrls.avgMemAccLat                41858.97                       # Average memory access latency per DRAM burst
system.mem_ctrls.numRdRetry                         0                       # Number of times read queue was full causing retry
system.mem_ctrls.numWrRetry                         0                       # Number of times write queue was full causing retry
system.mem_ctrls.readRowHits                    32200                       # Number of row buffer hits during reads
system.mem_ctrls.writeRowHits                    6038                       # Number of row buffer hits during writes
system.mem_ctrls.readRowHitRate                 79.51                       # Row buffer hit rate for reads
system.mem_ctrls.writeRowHitRate                88.07                       # Row buffer hit rate for writes
system.mem_ctrls.readPktSize::0                     0                       # Read request sizes (log2)
system.mem_ctrls.readPktSize::1                     0                       # Read request sizes (log2)
system.mem_ctrls.readPktSize::2                     0                       # Read request sizes (log2)
system.mem_ctrls.readPktSize::3                     0                       # Read request sizes (log2)
system.mem_ctrls.readPktSize::4                     0                       # Read request sizes (log2)
system.mem_ctrls.readPktSize::5                     0                       # Read request sizes (log2)
system.mem_ctrls.readPktSize::6                 40500                       # Read request sizes (log2)
system.mem_ctrls.writePktSize::0                    0                       # Write request sizes (log2)
system.mem_ctrls.writePktSize::1                    0                       # Write request sizes (log2)
system.mem_ctrls.writePktSize::2                    0                       # Write request sizes (log2)
system.mem_ctrls.writePktSize::3                    0                       # Write request sizes (log2)
system.mem_ctrls.writePktSize::4                    0                       # Write request sizes (log2)
system.mem_ctrls.writePktSize::5                    0                       # Write request sizes (log2)
system.mem_ctrls.writePktSize::6                 6856                       # Write request sizes (log2)
system.mem_ctrls.rdQLenPdf::0                   10078                       # What read queue length does an incoming req see
system.mem_ctrls.rdQLenPdf::1                   10079                       # What read queue length does an incoming req see
system.mem_ctrls.rdQLenPdf::2                   10079                       # What read queue length does an incoming req see
system.mem_ctrls.rdQLenPdf::3                   10080                       # What read queue length does an incoming req see
system.mem_ctrls.rdQLenPdf::4                      45                       # What read queue length does an incoming req see
system.mem_ctrls.rdQLenPdf::5                      44                       # What read queue length does an incoming req see
system.mem_ctrls.rdQLenPdf::6                      44                       # What read queue length does an incoming req see
system.mem_ctrls.rdQLenPdf::7                      44                       # What read queue length does an incoming req see
system.mem_ctrls.rdQLenPdf::8                       2                       # What read queue length does an incoming req see
system.mem_ctrls.rdQLenPdf::9                       2                       # What read queue length does an incoming req see
system.mem_ctrls.rdQLenPdf::10                      2                       # What read queue length does an incoming req see
system.mem_ctrls.rdQLenPdf::11                      1                       # What read queue length does an incoming req see
system.mem_ctrls.rdQLenPdf::12                      0                       # What read queue length does an incoming req see
system.mem_ctrls.rdQLenPdf::13                      0                       # What read queue length does an incoming req see
system.mem_ctrls.rdQLenPdf::14                      0                       # What read queue length does an incoming req see
system.mem_ctrls.rdQLenPdf::15                      0                       # What read queue length does an incoming req see
system.mem_ctrls.rdQLenPdf::16                      0                       # What read queue length does an incoming req see
system.mem_ctrls.rdQLenPdf::17                      0                       # What read queue length does an incoming req see
system.mem_ctrls.rdQLenPdf::18                      0                       # What read queue length does an incoming req see
system.mem_ctrls.rdQLenPdf::19                      0                       # What read queue length does an incoming req see
system.mem_ctrls.rdQLenPdf::20                      0                       # What read queue length does an incoming req see
system.mem_ctrls.rdQLenPdf::21                      0                       # What read queue length does an incoming req see
system.mem_ctrls.rdQLenPdf::22                      0                       # What read queue length does an incoming req see
system.mem_ctrls.rdQLenPdf::23                      0                       # What read queue length does an incoming req see
system.mem_ctrls.rdQLenPdf::24                      0                       # What read queue length does an incoming req see
system.mem_ctrls.rdQLenPdf::25                      0                       # What read queue length does an incoming req see
system.mem_ctrls.rdQLenPdf::26                      0                       # What read queue length does an incoming req see
system.mem_ctrls.rdQLenPdf::27                      0                       # What read queue length does an incoming req see
system.mem_ctrls.rdQLenPdf::28                      0                       # What read queue length does an incoming req see
system.mem_ctrls.rdQLenPdf::29                      0                       # What read queue length does an incoming req see
system.mem_ctrls.rdQLenPdf::30                      0                       # What read queue length does an incoming req see
system.mem_ctrls.rdQLenPdf::31                      0                       # What read queue length does an incoming req see
system.mem_ctrls.wrQLenPdf::0                       1                       # What write queue length does an incoming req see
system.mem_ctrls.wrQLenPdf::1                       1                       # What write queue length does an incoming req see
system.mem_ctrls.wrQLenPdf::2                       1                       # What write queue length does an incoming req see
system.mem_ctrls.wrQLenPdf::3                       1                       # What write queue length does an incoming req see
system.mem_ctrls.wrQLenPdf::4                       1                       # What write queue length does an incoming req see
system.mem_ctrls.wrQLenPdf::5                       1                       # What write queue length does an incoming req see
system.mem_ctrls.wrQLenPdf::6                       1                       # What write queue length does an incoming req see
system.mem_ctrls.wrQLenPdf::7                       1                       # What write queue length does an incoming req see
system.mem_ctrls.wrQLenPdf::8                       1                       # What write queue length does an incoming req see
system.mem_ctrls.wrQLenPdf::9                       1                       # What write queue length does an incoming req see
system.mem_ctrls.wrQLenPdf::10                      1                       # What write queue length does an incoming req see
system.mem_ctrls.wrQLenPdf::11                      1                       # What write queue length does an incoming req see
system.mem_ctrls.wrQLenPdf::12                      1                       # What write queue length does an incoming req see
system.mem_ctrls.wrQLenPdf::13                      1                       # What write queue length does an incoming req see
system.mem_ctrls.wrQLenPdf::14                      1                       # What write queue length does an incoming req see
system.mem_ctrls.wrQLenPdf::15                    342                       # What write queue length does an incoming req see
system.mem_ctrls.wrQLenPdf::16                    342                       # What write queue length does an incoming req see
system.mem_ctrls.wrQLenPdf::17                    342                       # What write queue length does an incoming req see
system.mem_ctrls.wrQLenPdf::18                    342                       # What write queue length does an incoming req see
system.mem_ctrls.wrQLenPdf::19                    342                       # What write queue length does an incoming req see
system.mem_ctrls.wrQLenPdf::20                    342                       # What write queue length does an incoming req see
system.mem_ctrls.wrQLenPdf::21                    342                       # What write queue length does an incoming req see
system.mem_ctrls.wrQLenPdf::22                    342                       # What write queue length does an incoming req see
system.mem_ctrls.wrQLenPdf::23                    342                       # What write queue length does an incoming req see
system.mem_ctrls.wrQLenPdf::24                    342                       # What write queue length does an incoming req see
system.mem_ctrls.wrQLenPdf::25                    342                       # What write queue length does an incoming req see
system.mem_ctrls.wrQLenPdf::26                    342                       # What write queue length does an incoming req see
system.mem_ctrls.wrQLenPdf::27                    341                       # What write queue length does an incoming req see
system.mem_ctrls.wrQLenPdf::28                    341                       # What write queue length does an incoming req see
system.mem_ctrls.wrQLenPdf::29                    341                       # What write queue length does an incoming req see
system.mem_ctrls.wrQLenPdf::30                    343                       # What write queue length does an incoming req see
system.mem_ctrls.wrQLenPdf::31                    343                       # What write queue length does an incoming req see
system.mem_ctrls.wrQLenPdf::32                    343                       # What write queue length does an incoming req see
system.mem_ctrls.wrQLenPdf::33                    343                       # What write queue length does an incoming req see
system.mem_ctrls.wrQLenPdf::34                    341                       # What write queue length does an incoming req see
system.mem_ctrls.wrQLenPdf::35                      1                       # What write queue length does an incoming req see
system.mem_ctrls.wrQLenPdf::36                      0                       # What write queue length does an incoming req see
system.mem_ctrls.wrQLenPdf::37                      0                       # What write queue length does an incoming req see
system.mem_ctrls.wrQLenPdf::38                      0                       # What write queue length does an incoming req see
system.mem_ctrls.wrQLenPdf::39                      0                       # What write queue length does an incoming req see
system.mem_ctrls.wrQLenPdf::40                      0                       # What write queue length does an incoming req see
system.mem_ctrls.wrQLenPdf::41                      0                       # What write queue length does an incoming req see
system.mem_ctrls.wrQLenPdf::42                      0                       # What write queue length does an incoming req see
system.mem_ctrls.wrQLenPdf::43                      0                       # What write queue length does an incoming req see
system.mem_ctrls.wrQLenPdf::44                      0                       # What write queue length does an incoming req see
system.mem_ctrls.wrQLenPdf::45                      0                       # What write queue length does an incoming req see
system.mem_ctrls.wrQLenPdf::46                      0                       # What write queue length does an incoming req see
system.mem_ctrls.wrQLenPdf::47                      0                       # What write queue length does an incoming req see
system.mem_ctrls.wrQLenPdf::48                      0                       # What write queue length does an incoming req see
system.mem_ctrls.wrQLenPdf::49                      0                       # What write queue length does an incoming req see
system.mem_ctrls.wrQLenPdf::50                      0                       # What write queue length does an incoming req see
system.mem_ctrls.wrQLenPdf::51                      0                       # What write queue length does an incoming req see
system.mem_ctrls.wrQLenPdf::52                      0                       # What write queue length does an incoming req see
system.mem_ctrls.wrQLenPdf::53                      0                       # What write queue length does an incoming req see
system.mem_ctrls.wrQLenPdf::54                      0                       # What write queue length does an incoming req see
system.mem_ctrls.wrQLenPdf::55                      0                       # What write queue length does an incoming req see
system.mem_ctrls.wrQLenPdf::56                      0                       # What write queue length does an incoming req see
system.mem_ctrls.wrQLenPdf::57                      0                       # What write queue length does an incoming req see
system.mem_ctrls.wrQLenPdf::58                      0                       # What write queue length does an incoming req see
system.mem_ctrls.wrQLenPdf::59                      0                       # What write queue length does an incoming req see
system.mem_ctrls.wrQLenPdf::60                      0                       # What write queue length does an incoming req see
system.mem_ctrls.wrQLenPdf::61                      0                       # What write queue length does an incoming req see
system.mem_ctrls.wrQLenPdf::62                      0                       # What write queue length does an incoming req see
system.mem_ctrls.wrQLenPdf::63                      0                       # What write queue length does an incoming req see
system.mem_ctrls.bytesPerActivate::samples         9091                       # Bytes accessed per row activation
system.mem_ctrls.bytesPerActivate::mean    333.192828                       # Bytes accessed per row activation
system.mem_ctrls.bytesPerActivate::gmean   305.286303                       # Bytes accessed per row activation
system.mem_ctrls.bytesPerActivate::stdev   173.359219                       # Bytes accessed per row activation
system.mem_ctrls.bytesPerActivate::0-127           33      0.36%      0.36% # Bytes accessed per row activation
system.mem_ctrls.bytesPerActivate::128-255           25      0.27%      0.64% # Bytes accessed per row activation
system.mem_ctrls.bytesPerActivate::256-383         7089     77.98%     78.62% # Bytes accessed per row activation
system.mem_ctrls.bytesPerActivate::384-511           18      0.20%     78.81% # Bytes accessed per row activation
system.mem_ctrls.bytesPerActivate::512-639         1387     15.26%     94.07% # Bytes accessed per row activation
system.mem_ctrls.bytesPerActivate::640-767           23      0.25%     94.32% # Bytes accessed per row activation
system.mem_ctrls.bytesPerActivate::768-895          224      2.46%     96.79% # Bytes accessed per row activation
system.mem_ctrls.bytesPerActivate::896-1023           24      0.26%     97.05% # Bytes accessed per row activation
system.mem_ctrls.bytesPerActivate::1024-1151          268      2.95%    100.00% # Bytes accessed per row activation
system.mem_ctrls.bytesPerActivate::total         9091                       # Bytes accessed per row activation
system.mem_ctrls.rdPerTurnAround::samples          341                       # Reads before turning the bus around for writes
system.mem_ctrls.rdPerTurnAround::mean     118.733138                       # Reads before turning the bus around for writes
system.mem_ctrls.rdPerTurnAround::gmean     24.066414                       # Reads before turning the bus around for writes
system.mem_ctrls.rdPerTurnAround::stdev   1160.991094                       # Reads before turning the bus around for writes
system.mem_ctrls.rdPerTurnAround::0-1023          338     99.12%     99.12% # Reads before turning the bus around for writes
system.mem_ctrls.rdPerTurnAround::1024-2047            1      0.29%     99.41% # Reads before turning the bus around for writes
system.mem_ctrls.rdPerTurnAround::5120-6143            1      0.29%     99.71% # Reads before turning the bus around for writes
system.mem_ctrls.rdPerTurnAround::20480-21503            1      0.29%    100.00% # Reads before turning the bus around for writes
system.mem_ctrls.rdPerTurnAround::total           341                       # Reads before turning the bus around for writes
system.mem_ctrls.wrPerTurnAround::samples          341                       # Writes before turning the bus around for reads
system.mem_ctrls.wrPerTurnAround::mean      20.026393                       # Writes before turning the bus around for reads
system.mem_ctrls.wrPerTurnAround::gmean     20.024263                       # Writes before turning the bus around for reads
system.mem_ctrls.wrPerTurnAround::stdev      0.310419                       # Writes before turning the bus around for reads
system.mem_ctrls.wrPerTurnAround::20              338     99.12%     99.12% # Writes before turning the bus around for reads
[...]
system.cpu.icache.ReadReq_mshr_miss_latency::.cpu.inst  11104077500                       # number of ReadReq MSHR miss cycles
system.cpu.icache.ReadReq_mshr_miss_latency::total  11104077500                       # number of ReadReq MSHR miss cycles
system.cpu.icache.ReadReq_mshr_miss_rate::.cpu.inst     0.032583                       # mshr miss rate for ReadReq accesses
system.cpu.icache.ReadReq_mshr_miss_rate::total     0.032583                       # mshr miss rate for ReadReq accesses
system.cpu.icache.ReadReq_avg_mshr_miss_latency::.cpu.inst 13105.249026                       # average ReadReq mshr miss latency
system.cpu.icache.ReadReq_avg_mshr_miss_latency::total 13105.249026                       # average ReadReq mshr miss latency
system.cpu.icache.tags.pwrStateResidencyTicks::UNDEFINED  64923859500                       # Cumulative time (in ticks) in various power states
system.cpu.icache.tags.tagsinuse           121.975691                       # Cycle average of tags in use
system.cpu.icache.tags.total_refs            26004144                       # Total number of references to valid blocks.
system.cpu.icache.tags.sampled_refs            847300                       # Sample count of references to valid blocks.
system.cpu.icache.tags.avg_refs             30.690598                       # Average number of references to valid blocks.
system.cpu.icache.tags.warmup_cycle            102500                       # Cycle when the warmup percentage was hit.
system.cpu.icache.tags.occ_blocks::.cpu.inst   121.975691                       # Average occupied blocks per requestor
system.cpu.icache.tags.occ_percent::.cpu.inst     0.952935                       # Average percentage of cache occupancy
system.cpu.icache.tags.occ_percent::total     0.952935                       # Average percentage of cache occupancy
system.cpu.icache.tags.occ_task_id_blocks::1024          122                       # Occupied blocks per task id
system.cpu.icache.tags.age_task_id_blocks_1024::0           12                       # Occupied blocks per task id
system.cpu.icache.tags.age_task_id_blocks_1024::2            8                       # Occupied blocks per task id
system.cpu.icache.tags.age_task_id_blocks_1024::3            1                       # Occupied blocks per task id
system.cpu.icache.tags.age_task_id_blocks_1024::4          101                       # Occupied blocks per task id
system.cpu.icache.tags.occ_task_id_percent::1024     0.953125                       # Percentage of cache occupancy per task id
system.cpu.icache.tags.tag_accesses          52855588                       # Number of tag accesses
system.cpu.icache.tags.data_accesses         52855588                       # Number of data accesses
system.cpu.dtb.walker.pwrStateResidencyTicks::UNDEFINED  64923859500                       # Cumulative time (in ticks) in various power states
system.cpu.dtb.stage2_mmu.stage2_tlb.walker.pwrStateResidencyTicks::UNDEFINED  64923859500                       # Cumulative time (in ticks) in various power states
system.cpu.dcache.pwrStateResidencyTicks::UNDEFINED  64923859500                       # Cumulative time (in ticks) in various power states
system.cpu.dcache.demand_hits::.cpu.data     34663322                       # number of demand (read+write) hits
system.cpu.dcache.demand_hits::total         34663322                       # number of demand (read+write) hits
system.cpu.dcache.overall_hits::.cpu.data     34666616                       # number of overall hits
system.cpu.dcache.overall_hits::total        34666616                       # number of overall hits
system.cpu.dcache.demand_misses::.cpu.data        40606                       # number of demand (read+write) misses
system.cpu.dcache.demand_misses::total          40606                       # number of demand (read+write) misses
system.cpu.dcache.overall_misses::.cpu.data        40673                       # number of overall misses
system.cpu.dcache.overall_misses::total         40673                       # number of overall misses
system.cpu.dcache.demand_miss_latency::.cpu.data   1740114000                       # number of demand (read+write) miss cycles
system.cpu.dcache.demand_miss_latency::total   1740114000                       # number of demand (read+write) miss cycles
system.cpu.dcache.overall_miss_latency::.cpu.data   1740114000                       # number of overall miss cycles
system.cpu.dcache.overall_miss_latency::total   1740114000                       # number of overall miss cycles
system.cpu.dcache.demand_accesses::.cpu.data     34703928                       # number of demand (read+write) accesses
system.cpu.dcache.demand_accesses::total     34703928                       # number of demand (read+write) accesses
system.cpu.dcache.overall_accesses::.cpu.data     34707289                       # number of overall (read+write) accesses
system.cpu.dcache.overall_accesses::total     34707289                       # number of overall (read+write) accesses
system.cpu.dcache.demand_miss_rate::.cpu.data     0.001170                       # miss rate for demand accesses
system.cpu.dcache.demand_miss_rate::total     0.001170                       # miss rate for demand accesses
system.cpu.dcache.overall_miss_rate::.cpu.data     0.001172                       # miss rate for overall accesses
system.cpu.dcache.overall_miss_rate::total     0.001172                       # miss rate for overall accesses
system.cpu.dcache.demand_avg_miss_latency::.cpu.data 42853.617692                       # average overall miss latency
system.cpu.dcache.demand_avg_miss_latency::total 42853.617692                       # average overall miss latency
system.cpu.dcache.overall_avg_miss_latency::.cpu.data 42783.025594                       # average overall miss latency
system.cpu.dcache.overall_avg_miss_latency::total 42783.025594                       # average overall miss latency
system.cpu.dcache.blocked_cycles::no_mshrs            0                       # number of cycles access was blocked
system.cpu.dcache.blocked_cycles::no_targets            0                       # number of cycles access was blocked
system.cpu.dcache.blocked::no_mshrs                 0                       # number of cycles access was blocked
system.cpu.dcache.blocked::no_targets               0                       # number of cycles access was blocked
system.cpu.dcache.avg_blocked_cycles::no_mshrs          nan                       # average number of cycles each access was blocked
system.cpu.dcache.avg_blocked_cycles::no_targets          nan                       # average number of cycles each access was blocked
system.cpu.dcache.writebacks::.writebacks        28851                       # number of writebacks
system.cpu.dcache.writebacks::total             28851                       # number of writebacks
system.cpu.dcache.demand_mshr_hits::.cpu.data         6775                       # number of demand (read+write) MSHR hits
system.cpu.dcache.demand_mshr_hits::total         6775                       # number of demand (read+write) MSHR hits
system.cpu.dcache.overall_mshr_hits::.cpu.data         6775                       # number of overall MSHR hits
system.cpu.dcache.overall_mshr_hits::total         6775                       # number of overall MSHR hits
system.cpu.dcache.demand_mshr_misses::.cpu.data        33831                       # number of demand (read+write) MSHR misses
system.cpu.dcache.demand_mshr_misses::total        33831                       # number of demand (read+write) MSHR misses
system.cpu.dcache.overall_mshr_misses::.cpu.data        33865                       # number of overall MSHR misses
system.cpu.dcache.overall_mshr_misses::total        33865                       # number of overall MSHR misses
system.cpu.dcache.demand_mshr_miss_latency::.cpu.data   1299222000                       # number of demand (read+write) MSHR miss cycles
system.cpu.dcache.demand_mshr_miss_latency::total   1299222000                       # number of demand (read+write) MSHR miss cycles
system.cpu.dcache.overall_mshr_miss_latency::.cpu.data   1300041500                       # number of overall MSHR miss cycles
system.cpu.dcache.overall_mshr_miss_latency::total   1300041500                       # number of overall MSHR miss cycles
system.cpu.dcache.demand_mshr_miss_rate::.cpu.data     0.000975                       # mshr miss rate for demand accesses
system.cpu.dcache.demand_mshr_miss_rate::total     0.000975                       # mshr miss rate for demand accesses
system.cpu.dcache.overall_mshr_miss_rate::.cpu.data     0.000976                       # mshr miss rate for overall accesses
system.cpu.dcache.overall_mshr_miss_rate::total     0.000976                       # mshr miss rate for overall accesses
system.cpu.dcache.demand_avg_mshr_miss_latency::.cpu.data 38403.298750                       # average overall mshr miss latency
system.cpu.dcache.demand_avg_mshr_miss_latency::total 38403.298750                       # average overall mshr miss latency
system.cpu.dcache.overall_avg_mshr_miss_latency::.cpu.data 38388.941385                       # average overall mshr miss latency
system.cpu.dcache.overall_avg_mshr_miss_latency::total 38388.941385                       # average overall mshr miss latency
system.cpu.dcache.replacements                  33609                       # number of replacements
system.cpu.dcache.ReadReq_hits::.cpu.data     20469135                       # number of ReadReq hits
system.cpu.dcache.ReadReq_hits::total        20469135                       # number of ReadReq hits
system.cpu.dcache.ReadReq_misses::.cpu.data        24620                       # number of ReadReq misses
system.cpu.dcache.ReadReq_misses::total         24620                       # number of ReadReq misses
system.cpu.dcache.ReadReq_miss_latency::.cpu.data    346828500                       # number of ReadReq miss cycles
system.cpu.dcache.ReadReq_miss_latency::total    346828500                       # number of ReadReq miss cycles
system.cpu.dcache.ReadReq_accesses::.cpu.data     20493755                       # number of ReadReq accesses(hits+misses)
system.cpu.dcache.ReadReq_accesses::total     20493755                       # number of ReadReq accesses(hits+misses)
system.cpu.dcache.ReadReq_miss_rate::.cpu.data     0.001201                       # miss rate for ReadReq accesses
system.cpu.dcache.ReadReq_miss_rate::total     0.001201                       # miss rate for ReadReq accesses
system.cpu.dcache.ReadReq_avg_miss_latency::.cpu.data 14087.266450                       # average ReadReq miss latency
system.cpu.dcache.ReadReq_avg_miss_latency::total 14087.266450                       # average ReadReq miss latency
system.cpu.dcache.ReadReq_mshr_hits::.cpu.data         1581                       # number of ReadReq MSHR hits
system.cpu.dcache.ReadReq_mshr_hits::total         1581                       # number of ReadReq MSHR hits
system.cpu.dcache.ReadReq_mshr_misses::.cpu.data        23039                       # number of ReadReq MSHR misses
system.cpu.dcache.ReadReq_mshr_misses::total        23039                       # number of ReadReq MSHR misses
system.cpu.dcache.ReadReq_mshr_miss_latency::.cpu.data    293930500                       # number of ReadReq MSHR miss cycles
system.cpu.dcache.ReadReq_mshr_miss_latency::total    293930500                       # number of ReadReq MSHR miss cycles
system.cpu.dcache.ReadReq_mshr_miss_rate::.cpu.data     0.001124                       # mshr miss rate for ReadReq accesses
system.cpu.dcache.ReadReq_mshr_miss_rate::total     0.001124                       # mshr miss rate for ReadReq accesses
system.cpu.dcache.ReadReq_avg_mshr_miss_latency::.cpu.data 12757.953904                       # average ReadReq mshr miss latency
system.cpu.dcache.ReadReq_avg_mshr_miss_latency::total 12757.953904                       # average ReadReq mshr miss latency
system.cpu.dcache.WriteReq_hits::.cpu.data     14194187                       # number of WriteReq hits
system.cpu.dcache.WriteReq_hits::total       14194187                       # number of WriteReq hits
system.cpu.dcache.WriteReq_misses::.cpu.data        15986                       # number of WriteReq misses
system.cpu.dcache.WriteReq_misses::total        15986                       # number of WriteReq misses
system.cpu.dcache.WriteReq_miss_latency::.cpu.data   1393285500                       # number of WriteReq miss cycles
system.cpu.dcache.WriteReq_miss_latency::total   1393285500                       # number of WriteReq miss cycles
system.cpu.dcache.WriteReq_accesses::.cpu.data     14210173                       # number of WriteReq accesses(hits+misses)
system.cpu.dcache.WriteReq_accesses::total     14210173                       # number of WriteReq accesses(hits+misses)
system.cpu.dcache.WriteReq_miss_rate::.cpu.data     0.001125                       # miss rate for WriteReq accesses
system.cpu.dcache.WriteReq_miss_rate::total     0.001125                       # miss rate for WriteReq accesses
system.cpu.dcache.WriteReq_avg_miss_latency::.cpu.data 87156.605780                       # average WriteReq miss latency
system.cpu.dcache.WriteReq_avg_miss_latency::total 87156.605780                       # average WriteReq miss latency
system.cpu.dcache.WriteReq_mshr_hits::.cpu.data         5194                       # number of WriteReq MSHR hits
system.cpu.dcache.WriteReq_mshr_hits::total         5194                       # number of WriteReq MSHR hits
system.cpu.dcache.WriteReq_mshr_misses::.cpu.data        10792                       # number of WriteReq MSHR misses
system.cpu.dcache.WriteReq_mshr_misses::total        10792                       # number of WriteReq MSHR misses
system.cpu.dcache.WriteReq_mshr_miss_latency::.cpu.data   1005291500                       # number of WriteReq MSHR miss cycles
system.cpu.dcache.WriteReq_mshr_miss_latency::total   1005291500                       # number of WriteReq MSHR miss cycles
system.cpu.dcache.WriteReq_mshr_miss_rate::.cpu.data     0.000759                       # mshr miss rate for WriteReq accesses
system.cpu.dcache.WriteReq_mshr_miss_rate::total     0.000759                       # mshr miss rate for WriteReq accesses
system.cpu.dcache.WriteReq_avg_mshr_miss_latency::.cpu.data 93151.547443                       # average WriteReq mshr miss latency
system.cpu.dcache.WriteReq_avg_mshr_miss_latency::total 93151.547443                       # average WriteReq mshr miss latency
system.cpu.dcache.SoftPFReq_hits::.cpu.data         3294                       # number of SoftPFReq hits
system.cpu.dcache.SoftPFReq_hits::total          3294                       # number of SoftPFReq hits
system.cpu.dcache.SoftPFReq_misses::.cpu.data           67                       # number of SoftPFReq misses
system.cpu.dcache.SoftPFReq_misses::total           67                       # number of SoftPFReq misses
system.cpu.dcache.SoftPFReq_accesses::.cpu.data         3361                       # number of SoftPFReq accesses(hits+misses)
system.cpu.dcache.SoftPFReq_accesses::total         3361                       # number of SoftPFReq accesses(hits+misses)
system.cpu.dcache.SoftPFReq_miss_rate::.cpu.data     0.019935                       # miss rate for SoftPFReq accesses
system.cpu.dcache.SoftPFReq_miss_rate::total     0.019935                       # miss rate for SoftPFReq accesses
system.cpu.dcache.SoftPFReq_mshr_misses::.cpu.data           34                       # number of SoftPFReq MSHR misses
system.cpu.dcache.SoftPFReq_mshr_misses::total           34                       # number of SoftPFReq MSHR misses
system.cpu.dcache.SoftPFReq_mshr_miss_latency::.cpu.data       819500                       # number of SoftPFReq MSHR miss cycles
system.cpu.dcache.SoftPFReq_mshr_miss_latency::total       819500                       # number of SoftPFReq MSHR miss cycles
system.cpu.dcache.SoftPFReq_mshr_miss_rate::.cpu.data     0.010116                       # mshr miss rate for SoftPFReq accesses
system.cpu.dcache.SoftPFReq_mshr_miss_rate::total     0.010116                       # mshr miss rate for SoftPFReq accesses
system.cpu.dcache.SoftPFReq_avg_mshr_miss_latency::.cpu.data 24102.941176                       # average SoftPFReq mshr miss latency
system.cpu.dcache.SoftPFReq_avg_mshr_miss_latency::total 24102.941176                       # average SoftPFReq mshr miss latency
system.cpu.dcache.LoadLockedReq_hits::.cpu.data        89082                       # number of LoadLockedReq hits
system.cpu.dcache.LoadLockedReq_hits::total        89082                       # number of LoadLockedReq hits
system.cpu.dcache.LoadLockedReq_accesses::.cpu.data        89082                       # number of LoadLockedReq accesses(hits+misses)
system.cpu.dcache.LoadLockedReq_accesses::total        89082                       # number of LoadLockedReq accesses(hits+misses)
system.cpu.dcache.StoreCondReq_hits::.cpu.data        89082                       # number of StoreCondReq hits
system.cpu.dcache.StoreCondReq_hits::total        89082                       # number of StoreCondReq hits
system.cpu.dcache.StoreCondReq_accesses::.cpu.data        89082                       # number of StoreCondReq accesses(hits+misses)
system.cpu.dcache.StoreCondReq_accesses::total        89082                       # number of StoreCondReq accesses(hits+misses)
system.cpu.dcache.tags.pwrStateResidencyTicks::UNDEFINED  64923859500                       # Cumulative time (in ticks) in various power states
system.cpu.dcache.tags.tagsinuse           255.439923                       # Cycle average of tags in use
system.cpu.dcache.tags.total_refs            34878645                       # Total number of references to valid blocks.
system.cpu.dcache.tags.sampled_refs             33865                       # Sample count of references to valid blocks.
system.cpu.dcache.tags.avg_refs           1029.931936                       # Average number of references to valid blocks.
system.cpu.dcache.tags.warmup_cycle            240500                       # Cycle when the warmup percentage was hit.
system.cpu.dcache.tags.occ_blocks::.cpu.data   255.439923                       # Average occupied blocks per requestor
system.cpu.dcache.tags.occ_percent::.cpu.data     0.997812                       # Average percentage of cache occupancy
system.cpu.dcache.tags.occ_percent::total     0.997812                       # Average percentage of cache occupancy
system.cpu.dcache.tags.occ_task_id_blocks::1024          256                       # Occupied blocks per task id
system.cpu.dcache.tags.age_task_id_blocks_1024::0            2                       # Occupied blocks per task id
system.cpu.dcache.tags.age_task_id_blocks_1024::1           36                       # Occupied blocks per task id
system.cpu.dcache.tags.age_task_id_blocks_1024::2          158                       # Occupied blocks per task id
system.cpu.dcache.tags.age_task_id_blocks_1024::3           53                       # Occupied blocks per task id
system.cpu.dcache.tags.age_task_id_blocks_1024::4            7                       # Occupied blocks per task id
system.cpu.dcache.tags.occ_task_id_percent::1024            1                       # Percentage of cache occupancy per task id
system.cpu.dcache.tags.tag_accesses          69804771                       # Number of tag accesses
system.cpu.dcache.tags.data_accesses         69804771                       # Number of data accesses
system.cpu.itb.walker.pwrStateResidencyTicks::UNDEFINED  64923859500                       # Cumulative time (in ticks) in various power states
system.cpu.itb.stage2_mmu.stage2_tlb.walker.pwrStateResidencyTicks::UNDEFINED  64923859500                       # Cumulative time (in ticks) in various power states

---------- End Simulation Statistics   ----------
