
---------- Begin Simulation Statistics ----------
final_tick                                84006709500                       # Number of ticks from beginning of simulation (restored from checkpoints and never reset)
host_inst_rate                                 131198                       # Simulator instruction rate (inst/s)
host_mem_usage                                 691640                       # Number of bytes of host memory used
host_op_rate                                   131456                       # Simulator op (including micro ops) rate (op/s)
host_seconds                                   762.20                       # Real time elapsed on the host
host_tick_rate                              110215496                       # Simulator tick rate (ticks/s)
sim_freq                                 1000000000000                       # Frequency of simulated ticks
sim_insts                                   100000001                       # Number of instructions simulated
sim_ops                                     100196363                       # Number of ops (including micro ops) simulated
sim_seconds                                  0.084007                       # Number of seconds simulated
sim_ticks                                 84006709500                       # Number of ticks simulated
system.cpu.branchPred.BTBCorrect                    0                       # Number of correct BTB predictions (this stat may not work properly.
system.cpu.branchPred.BTBHitPct             99.695165                       # BTB Hit Percentage
system.cpu.branchPred.BTBHits                 2095387                       # Number of BTB hits
system.cpu.branchPred.BTBLookups              2101794                       # Number of BTB lookups
system.cpu.branchPred.RASInCorrect                  5                       # Number of incorrect RAS predictions.
system.cpu.branchPred.condIncorrect             81341                       # Number of conditional branches incorrect
system.cpu.branchPred.condPredicted           3727656                       # Number of conditional branches predicted
system.cpu.branchPred.indirectHits                291                       # Number of indirect target hits.
system.cpu.branchPred.indirectLookups             808                       # Number of indirect predictor lookups.
system.cpu.branchPred.indirectMisses              517                       # Number of indirect misses.
system.cpu.branchPred.lookups                 4477720                       # Number of BP lookups
system.cpu.branchPred.usedRAS                   65337                       # Number of times the RAS was used to get a target.
system.cpu.branchPredindirectMispredicted          171                       # Number of mispredicted indirect branches.
system.cpu.committedInsts                   100000001                       # Number of instructions committed
system.cpu.committedOps                     100196363                       # Number of ops (including micro ops) committed
system.cpu.cpi                               1.680134                       # CPI: cycles per instruction
system.cpu.discardedOps                        190633                       # Number of ops (including micro ops) which were discarded before commit
system.cpu.dtb.accesses                             0                       # DTB accesses
system.cpu.dtb.align_faults                         0                       # Number of TLB faults due to alignment restrictions
system.cpu.dtb.domain_faults                        0                       # Number of TLB faults due to domain restrictions
system.cpu.dtb.flush_entries                        0                       # Number of entries that have been flushed from TLB
system.cpu.dtb.flush_tlb                            0                       # Number of times complete TLB was flushed
system.cpu.dtb.flush_tlb_asid                       0                       # Number of times TLB was flushed by ASID
system.cpu.dtb.flush_tlb_mva                        0                       # Number of times TLB was flushed by MVA
system.cpu.dtb.flush_tlb_mva_asid                   0                       # Number of times TLB was flushed by MVA & ASID
system.cpu.dtb.hits                                 0                       # DTB hits
system.cpu.dtb.inst_accesses                        0                       # ITB inst accesses
system.cpu.dtb.inst_hits                            0                       # ITB inst hits
system.cpu.dtb.inst_misses                          0                       # ITB inst misses
system.cpu.dtb.misses                               0                       # DTB misses
system.cpu.dtb.perms_faults                         0                       # Number of TLB faults due to permissions restrictions
system.cpu.dtb.prefetch_faults                      0                       # Number of TLB faults due to prefetch
system.cpu.dtb.read_accesses                        0                       # DTB read accesses
system.cpu.dtb.read_hits                            0                       # DTB read hits
system.cpu.dtb.read_misses                          0                       # DTB read misses
system.cpu.dtb.stage2_mmu.stage2_tlb.accesses            0                       # DTB accesses
system.cpu.dtb.stage2_mmu.stage2_tlb.align_faults            0                       # Number of TLB faults due to alignment restrictions
system.cpu.dtb.stage2_mmu.stage2_tlb.domain_faults            0                       # Number of TLB faults due to domain restrictions
system.cpu.dtb.stage2_mmu.stage2_tlb.flush_entries            0                       # Number of entries that have been flushed from TLB
system.cpu.dtb.stage2_mmu.stage2_tlb.flush_tlb            0                       # Number of times complete TLB was flushed
system.cpu.dtb.stage2_mmu.stage2_tlb.flush_tlb_asid            0                       # Number of times TLB was flushed by ASID
system.cpu.dtb.stage2_mmu.stage2_tlb.flush_tlb_mva            0                       # Number of times TLB was flushed by MVA
system.cpu.dtb.stage2_mmu.stage2_tlb.flush_tlb_mva_asid            0                       # Number of times TLB was flushed by MVA & ASID
system.cpu.dtb.stage2_mmu.stage2_tlb.hits            0                       # DTB hits
system.cpu.dtb.stage2_mmu.stage2_tlb.inst_accesses            0                       # ITB inst accesses
system.cpu.dtb.stage2_mmu.stage2_tlb.inst_hits            0                       # ITB inst hits
system.cpu.dtb.stage2_mmu.stage2_tlb.inst_misses            0                       # ITB inst misses
system.cpu.dtb.stage2_mmu.stage2_tlb.misses            0                       # DTB misses
system.cpu.dtb.stage2_mmu.stage2_tlb.perms_faults            0                       # Number of TLB faults due to permissions restrictions
system.cpu.dtb.stage2_mmu.stage2_tlb.prefetch_faults            0                       # Number of TLB faults due to prefetch
system.cpu.dtb.stage2_mmu.stage2_tlb.read_accesses            0                       # DTB read accesses
system.cpu.dtb.stage2_mmu.stage2_tlb.read_hits            0                       # DTB read hits
system.cpu.dtb.stage2_mmu.stage2_tlb.read_misses            0                       # DTB read misses
system.cpu.dtb.stage2_mmu.stage2_tlb.walker.walkRequestOrigin_Requested::Data            0                       # Table walker requests started/completed, data/inst
system.cpu.dtb.stage2_mmu.stage2_tlb.walker.walkRequestOrigin_Requested::Inst            0                       # Table walker requests started/completed, data/inst
system.cpu.dtb.stage2_mmu.stage2_tlb.walker.walkRequestOrigin_Requested::total            0                       # Table walker requests started/completed, data/inst
system.cpu.dtb.stage2_mmu.stage2_tlb.walker.walkRequestOrigin_Completed::Data            0                       # Table walker requests started/completed, data/inst
system.cpu.dtb.stage2_mmu.stage2_tlb.walker.walkRequestOrigin_Completed::Inst            0                       # Table walker requests started/completed, data/inst
system.cpu.dtb.stage2_mmu.stage2_tlb.walker.walkRequestOrigin_Completed::total            0                       # Table walker requests started/completed, data/inst
system.cpu.dtb.stage2_mmu.stage2_tlb.walker.walkRequestOrigin::total            0                       # Table walker requests started/completed, data/inst
system.cpu.dtb.stage2_mmu.stage2_tlb.walker.walks            0                       # Table walker walks requested
system.cpu.dtb.stage2_mmu.stage2_tlb.write_accesses            0                       # DTB write accesses
system.cpu.dtb.stage2_mmu.stage2_tlb.write_hits            0                       # DTB write hits
system.cpu.dtb.stage2_mmu.stage2_tlb.write_misses            0                       # DTB write misses
system.cpu.dtb.walker.walkRequestOrigin_Requested::Data            0                       # Table walker requests started/completed, data/inst
system.cpu.dtb.walker.walkRequestOrigin_Requested::Inst            0                       # Table walker requests started/completed, data/inst
system.cpu.dtb.walker.walkRequestOrigin_Requested::total            0                       # Table walker requests started/completed, data/inst
system.cpu.dtb.walker.walkRequestOrigin_Completed::Data            0                       # Table walker requests started/completed, data/inst
system.cpu.dtb.walker.walkRequestOrigin_Completed::Inst            0                       # Table walker requests started/completed, data/inst
system.cpu.dtb.walker.walkRequestOrigin_Completed::total            0                       # Table walker requests started/completed, data/inst
system.cpu.dtb.walker.walkRequestOrigin::total            0                       # Table walker requests started/completed, data/inst
system.cpu.dtb.walker.walks                         0                       # Table walker walks requested
system.cpu.dtb.write_accesses                       0                       # DTB write accesses
system.cpu.dtb.write_hits                           0                       # DTB write hits
system.cpu.dtb.write_misses                         0                       # DTB write misses
system.cpu.fetch2.amo_instructions                  0                       # Number of memory atomic instructions successfully decoded
system.cpu.fetch2.fp_instructions                   0                       # Number of floating point instructions successfully decoded
system.cpu.fetch2.int_instructions           42610011                       # Number of integer instructions successfully decoded
system.cpu.fetch2.load_instructions          43402254                       # Number of memory load instructions successfully decoded
system.cpu.fetch2.store_instructions         11001393                       # Number of memory store instructions successfully decoded
system.cpu.fetch2.vec_instructions                  0                       # Number of SIMD instructions successfully decoded
system.cpu.idleCycles                        35310643                       # Total number of cycles that the object has spent stopped
system.cpu.ipc                               0.595191                       # IPC: instructions per cycle
system.cpu.itb.accesses                             0                       # DTB accesses
system.cpu.itb.align_faults                         0                       # Number of TLB faults due to alignment restrictions
system.cpu.itb.domain_faults                        0                       # Number of TLB faults due to domain restrictions
system.cpu.itb.flush_entries                        0                       # Number of entries that have been flushed from TLB
system.cpu.itb.flush_tlb                            0                       # Number of times complete TLB was flushed
system.cpu.itb.flush_tlb_asid                       0                       # Number of times TLB was flushed by ASID
system.cpu.itb.flush_tlb_mva                        0                       # Number of times TLB was flushed by MVA
system.cpu.itb.flush_tlb_mva_asid                   0                       # Number of times TLB was flushed by MVA & ASID
system.cpu.itb.hits                                 0                       # DTB hits
system.cpu.itb.inst_accesses                        0                       # ITB inst accesses
system.cpu.itb.inst_hits                            0                       # ITB inst hits
system.cpu.itb.inst_misses                          0                       # ITB inst misses
system.cpu.itb.misses                               0                       # DTB misses
system.cpu.itb.perms_faults                         0                       # Number of TLB faults due to permissions restrictions
system.cpu.itb.prefetch_faults                      0                       # Number of TLB faults due to prefetch
system.cpu.itb.read_accesses                        0                       # DTB read accesses
system.cpu.itb.read_hits                            0                       # DTB read hits
system.cpu.itb.read_misses                          0                       # DTB read misses
system.cpu.itb.stage2_mmu.stage2_tlb.accesses            0                       # DTB accesses
system.cpu.itb.stage2_mmu.stage2_tlb.align_faults            0                       # Number of TLB faults due to alignment restrictions
system.cpu.itb.stage2_mmu.stage2_tlb.domain_faults            0                       # Number of TLB faults due to domain restrictions
system.cpu.itb.stage2_mmu.stage2_tlb.flush_entries            0                       # Number of entries that have been flushed from TLB
system.cpu.itb.stage2_mmu.stage2_tlb.flush_tlb            0                       # Number of times complete TLB was flushed
system.cpu.itb.stage2_mmu.stage2_tlb.flush_tlb_asid            0                       # Number of times TLB was flushed by ASID
system.cpu.itb.stage2_mmu.stage2_tlb.flush_tlb_mva            0                       # Number of times TLB was flushed by MVA
system.cpu.itb.stage2_mmu.stage2_tlb.flush_tlb_mva_asid            0                       # Number of times TLB was flushed by MVA & ASID
system.cpu.itb.stage2_mmu.stage2_tlb.hits            0                       # DTB hits
system.cpu.itb.stage2_mmu.stage2_tlb.inst_accesses            0                       # ITB inst accesses
system.cpu.itb.stage2_mmu.stage2_tlb.inst_hits            0                       # ITB inst hits
system.cpu.itb.stage2_mmu.stage2_tlb.inst_misses            0                       # ITB inst misses
system.cpu.itb.stage2_mmu.stage2_tlb.misses            0                       # DTB misses
system.cpu.itb.stage2_mmu.stage2_tlb.perms_faults            0                       # Number of TLB faults due to permissions restrictions
system.cpu.itb.stage2_mmu.stage2_tlb.prefetch_faults            0                       # Number of TLB faults due to prefetch
system.cpu.itb.stage2_mmu.stage2_tlb.read_accesses            0                       # DTB read accesses
system.cpu.itb.stage2_mmu.stage2_tlb.read_hits            0                       # DTB read hits
system.cpu.itb.stage2_mmu.stage2_tlb.read_misses            0                       # DTB read misses
system.cpu.itb.stage2_mmu.stage2_tlb.walker.walkRequestOrigin_Requested::Data            0                       # Table walker requests started/completed, data/inst
system.cpu.itb.stage2_mmu.stage2_tlb.walker.walkRequestOrigin_Requested::Inst            0                       # Table walker requests started/completed, data/inst
system.cpu.itb.stage2_mmu.stage2_tlb.walker.walkRequestOrigin_Requested::total            0                       # Table walker requests started/completed, data/inst
system.cpu.itb.stage2_mmu.stage2_tlb.walker.walkRequestOrigin_Completed::Data            0                       # Table walker requests started/completed, data/inst
system.cpu.itb.stage2_mmu.stage2_tlb.walker.walkRequestOrigin_Completed::Inst            0                       # Table walker requests started/completed, data/inst
system.cpu.itb.stage2_mmu.stage2_tlb.walker.walkRequestOrigin_Completed::total            0                       # Table walker requests started/completed, data/inst
system.cpu.itb.stage2_mmu.stage2_tlb.walker.walkRequestOrigin::total            0                       # Table walker requests started/completed, data/inst
system.cpu.itb.stage2_mmu.stage2_tlb.walker.walks            0                       # Table walker walks requested
system.cpu.itb.stage2_mmu.stage2_tlb.write_accesses            0                       # DTB write accesses
system.cpu.itb.stage2_mmu.stage2_tlb.write_hits            0                       # DTB write hits
system.cpu.itb.stage2_mmu.stage2_tlb.write_misses            0                       # DTB write misses
system.cpu.itb.walker.walkRequestOrigin_Requested::Data            0                       # Table walker requests started/completed, data/inst
system.cpu.itb.walker.walkRequestOrigin_Requested::Inst            0                       # Table walker requests started/completed, data/inst
system.cpu.itb.walker.walkRequestOrigin_Requested::total            0                       # Table walker requests started/completed, data/inst
system.cpu.itb.walker.walkRequestOrigin_Completed::Data            0                       # Table walker requests started/completed, data/inst
system.cpu.itb.walker.walkRequestOrigin_Completed::Inst            0                       # Table walker requests started/completed, data/inst
system.cpu.itb.walker.walkRequestOrigin_Completed::total            0                       # Table walker requests started/completed, data/inst
system.cpu.itb.walker.walkRequestOrigin::total            0                       # Table walker requests started/completed, data/inst
system.cpu.itb.walker.walks                         0                       # Table walker walks requested
system.cpu.itb.write_accesses                       0                       # DTB write accesses
system.cpu.itb.write_hits                           0                       # DTB write hits
system.cpu.itb.write_misses                         0                       # DTB write misses
system.cpu.numCycles                        168013419                       # number of cpu cycles simulated
system.cpu.numFetchSuspends                         0                       # Number of times Execute suspended instruction fetching
system.cpu.numWorkItemsCompleted                    0                       # number of work items this cpu completed
system.cpu.numWorkItemsStarted                      0                       # number of work items this cpu started
system.cpu.op_class_0::No_OpClass                   0      0.00%      0.00% # Class of committed instruction
system.cpu.op_class_0::IntAlu                46531400     46.44%     46.44% # Class of committed instruction
system.cpu.op_class_0::IntMult                  20720      0.02%     46.46% # Class of committed instruction
system.cpu.op_class_0::IntDiv                       0      0.00%     46.46% # Class of committed instruction
system.cpu.op_class_0::FloatAdd                     0      0.00%     46.46% # Class of committed instruction
system.cpu.op_class_0::FloatCmp                     0      0.00%     46.46% # Class of committed instruction
system.cpu.op_class_0::FloatCvt                     0      0.00%     46.46% # Class of committed instruction
system.cpu.op_class_0::FloatMult                    0      0.00%     46.46% # Class of committed instruction
system.cpu.op_class_0::FloatMultAcc                 0      0.00%     46.46% # Class of committed instruction
system.cpu.op_class_0::FloatDiv                     0      0.00%     46.46% # Class of committed instruction
system.cpu.op_class_0::FloatMisc                    0      0.00%     46.46% # Class of committed instruction
system.cpu.op_class_0::FloatSqrt                    0      0.00%     46.46% # Class of committed instruction
system.cpu.op_class_0::SimdAdd                      0      0.00%     46.46% # Class of committed instruction
system.cpu.op_class_0::SimdAddAcc                   0      0.00%     46.46% # Class of committed instruction
system.cpu.op_class_0::SimdAlu                      0      0.00%     46.46% # Class of committed instruction
system.cpu.op_class_0::SimdCmp                      0      0.00%     46.46% # Class of committed instruction
system.cpu.op_class_0::SimdCvt                      0      0.00%     46.46% # Class of committed instruction
system.cpu.op_class_0::SimdMisc                     0      0.00%     46.46% # Class of committed instruction
system.cpu.op_class_0::SimdMult                     0      0.00%     46.46% # Class of committed instruction
system.cpu.op_class_0::SimdMultAcc                  0      0.00%     46.46% # Class of committed instruction
system.cpu.op_class_0::SimdShift                    0      0.00%     46.46% # Class of committed instruction
system.cpu.op_class_0::SimdShiftAcc                 0      0.00%     46.46% # Class of committed instruction
system.cpu.op_class_0::SimdDiv                      0      0.00%     46.46% # Class of committed instruction
system.cpu.op_class_0::SimdSqrt                     0      0.00%     46.46% # Class of committed instruction
system.cpu.op_class_0::SimdFloatAdd                 0      0.00%     46.46% # Class of committed instruction
system.cpu.op_class_0::SimdFloatAlu                 0      0.00%     46.46% # Class of committed instruction
system.cpu.op_class_0::SimdFloatCmp                 0      0.00%     46.46% # Class of committed instruction
system.cpu.op_class_0::SimdFloatCvt                 0      0.00%     46.46% # Class of committed instruction
system.cpu.op_class_0::SimdFloatDiv                 0      0.00%     46.46% # Class of committed instruction
system.cpu.op_class_0::SimdFloatMisc               18      0.00%     46.46% # Class of committed instruction
system.cpu.op_class_0::SimdFloatMult                0      0.00%     46.46% # Class of committed instruction
system.cpu.op_class_0::SimdFloatMultAcc             0      0.00%     46.46% # Class of committed instruction
system.cpu.op_class_0::SimdFloatSqrt                0      0.00%     46.46% # Class of committed instruction
system.cpu.op_class_0::SimdReduceAdd                0      0.00%     46.46% # Class of committed instruction
system.cpu.op_class_0::SimdReduceAlu                0      0.00%     46.46% # Class of committed instruction
system.cpu.op_class_0::SimdReduceCmp                0      0.00%     46.46% # Class of committed instruction
system.cpu.op_class_0::SimdFloatReduceAdd            0      0.00%     46.46% # Class of committed instruction
system.cpu.op_class_0::SimdFloatReduceCmp            0      0.00%     46.46% # Class of committed instruction
system.cpu.op_class_0::SimdAes                      0      0.00%     46.46% # Class of committed instruction
system.cpu.op_class_0::SimdAesMix                   0      0.00%     46.46% # Class of committed instruction
system.cpu.op_class_0::SimdSha1Hash                 0      0.00%     46.46% # Class of committed instruction
system.cpu.op_class_0::SimdSha1Hash2                0      0.00%     46.46% # Class of committed instruction
system.cpu.op_class_0::SimdSha256Hash               0      0.00%     46.46% # Class of committed instruction
system.cpu.op_class_0::SimdSha256Hash2              0      0.00%     46.46% # Class of committed instruction
system.cpu.op_class_0::SimdShaSigma2                0      0.00%     46.46% # Class of committed instruction
system.cpu.op_class_0::SimdShaSigma3                0      0.00%     46.46% # Class of committed instruction
system.cpu.op_class_0::SimdPredAlu                  0      0.00%     46.46% # Class of committed instruction
system.cpu.op_class_0::MemRead               42693601     42.61%     89.07% # Class of committed instruction
system.cpu.op_class_0::MemWrite              10950624     10.93%    100.00% # Class of committed instruction
system.cpu.op_class_0::FloatMemRead                 0      0.00%    100.00% # Class of committed instruction
system.cpu.op_class_0::FloatMemWrite                0      0.00%    100.00% # Class of committed instruction
system.cpu.op_class_0::IprAccess                    0      0.00%    100.00% # Class of committed instruction
system.cpu.op_class_0::InstPrefetch                 0      0.00%    100.00% # Class of committed instruction
system.cpu.op_class_0::total                100196363                       # Class of committed instruction
system.cpu.tickCycles                       132702776                       # Number of cycles that the object actually ticked
system.cpu.workload.numSyscalls                    84                       # Number of system calls
system.membus.snoop_filter.hit_multi_requests            0                       # Number of requests hitting in the snoop filter with multiple (>1) holders of the requested data.
system.membus.snoop_filter.hit_multi_snoops            0                       # Number of snoops hitting in the snoop filter with multiple (>1) holders of the requested data.
system.membus.snoop_filter.hit_single_requests       168110                       # Number of requests hitting in the snoop filter with a single holder of the requested data.
system.membus.snoop_filter.hit_single_snoops            0                       # Number of snoops hitting in the snoop filter with a single holder of the requested data.
system.membus.snoop_filter.tot_requests        369132                       # Total number of requests made to the snoop filter.
system.membus.snoop_filter.tot_snoops               0                       # Total number of snoops made to the snoop filter.
system.tol2bus.snoop_filter.hit_multi_requests          121                       # Number of requests hitting in the snoop filter with multiple (>1) holders of the requested data.
system.tol2bus.snoop_filter.hit_multi_snoops            0                       # Number of snoops hitting in the snoop filter with multiple (>1) holders of the requested data.
system.tol2bus.snoop_filter.hit_single_requests       711129                       # Number of requests hitting in the snoop filter with a single holder of the requested data.
system.tol2bus.snoop_filter.hit_single_snoops          403                       # Number of snoops hitting in the snoop filter with a single holder of the requested data.
system.tol2bus.snoop_filter.tot_requests      1423534                       # Total number of requests made to the snoop filter.
system.tol2bus.snoop_filter.tot_snoops            403                       # Total number of snoops made to the snoop filter.
system.membus.pwrStateResidencyTicks::UNDEFINED  84006709500                       # Cumulative time (in ticks) in various power states
system.membus.trans_dist::ReadResp              64908                       # Transaction distribution
system.membus.trans_dist::WritebackDirty       111151                       # Transaction distribution
system.membus.trans_dist::CleanEvict            56953                       # Transaction distribution
system.membus.trans_dist::ReadExReq            136120                       # Transaction distribution
system.membus.trans_dist::ReadExResp           136119                       # Transaction distribution
system.membus.trans_dist::ReadSharedReq         64908                       # Transaction distribution
system.membus.pkt_count_system.l2.mem_side::system.mem_ctrls.port       570159                       # Packet count per connected master and slave (bytes)
system.membus.pkt_count::total                 570159                       # Packet count per connected master and slave (bytes)
system.membus.pkt_size_system.l2.mem_side::system.mem_ctrls.port     19979392                       # Cumulative packet size per connected master and slave (bytes)
system.membus.pkt_size::total                19979392                       # Cumulative packet size per connected master and slave (bytes)
system.membus.snoops                                0                       # Total snoops (count)
system.membus.snoopTraffic                          0                       # Total snoop traffic (bytes)
system.membus.snoop_fanout::samples            201028                       # Request fanout histogram
system.membus.snoop_fanout::mean                    0                       # Request fanout histogram
system.membus.snoop_fanout::stdev                   0                       # Request fanout histogram
system.membus.snoop_fanout::underflows              0      0.00%      0.00% # Request fanout histogram
system.membus.snoop_fanout::0                  201028    100.00%    100.00% # Request fanout histogram
system.membus.snoop_fanout::1                       0      0.00%    100.00% # Request fanout histogram
system.membus.snoop_fanout::overflows               0      0.00%    100.00% # Request fanout histogram
system.membus.snoop_fanout::min_value               0                       # Request fanout histogram
system.membus.snoop_fanout::max_value               0                       # Request fanout histogram
system.membus.snoop_fanout::total              201028                       # Request fanout histogram
system.membus.respLayer1.occupancy         1082915000                       # Layer occupancy (ticks)
system.membus.respLayer1.utilization              1.3                       # Layer utilization (%)
system.membus.reqLayer0.occupancy           855243500                       # Layer occupancy (ticks)
system.membus.reqLayer0.utilization               1.0                       # Layer utilization (%)
system.tol2bus.pwrStateResidencyTicks::UNDEFINED  84006709500                       # Cumulative time (in ticks) in various power states
system.tol2bus.trans_dist::ReadResp            426061                       # Transaction distribution
system.tol2bus.trans_dist::WritebackDirty       746706                       # Transaction distribution
system.tol2bus.trans_dist::WritebackClean          554                       # Transaction distribution
system.tol2bus.trans_dist::CleanEvict          132374                       # Transaction distribution
system.tol2bus.trans_dist::ReadExReq           286346                       # Transaction distribution
system.tol2bus.trans_dist::ReadExResp          286345                       # Transaction distribution
system.tol2bus.trans_dist::ReadCleanReq           809                       # Transaction distribution
system.tol2bus.trans_dist::ReadSharedReq       425252                       # Transaction distribution
system.tol2bus.pkt_count_system.cpu.icache.mem_side::system.l2.cpu_side         2172                       # Packet count per connected master and slave (bytes)
system.tol2bus.pkt_count_system.cpu.dcache.mem_side::system.l2.cpu_side      2133768                       # Packet count per connected master and slave (bytes)
system.tol2bus.pkt_count::total               2135940                       # Packet count per connected master and slave (bytes)
system.tol2bus.pkt_size_system.cpu.icache.mem_side::system.l2.cpu_side        87232                       # Cumulative packet size per connected master and slave (bytes)
system.tol2bus.pkt_size_system.cpu.dcache.mem_side::system.l2.cpu_side     86217728                       # Cumulative packet size per connected master and slave (bytes)
system.tol2bus.pkt_size::total               86304960                       # Cumulative packet size per connected master and slave (bytes)
system.tol2bus.snoops                          168507                       # Total snoops (count)
system.tol2bus.snoopTraffic                   7113664                       # Total snoop traffic (bytes)
system.tol2bus.snoop_fanout::samples           880914                       # Request fanout histogram
system.tol2bus.snoop_fanout::mean            0.000597                       # Request fanout histogram
system.tol2bus.snoop_fanout::stdev           0.024428                       # Request fanout histogram
system.tol2bus.snoop_fanout::underflows             0      0.00%      0.00% # Request fanout histogram
system.tol2bus.snoop_fanout::0                 880388     99.94%     99.94% # Request fanout histogram
system.tol2bus.snoop_fanout::1                    526      0.06%    100.00% # Request fanout histogram
system.tol2bus.snoop_fanout::2                      0      0.00%    100.00% # Request fanout histogram
system.tol2bus.snoop_fanout::overflows              0      0.00%    100.00% # Request fanout histogram
system.tol2bus.snoop_fanout::min_value              0                       # Request fanout histogram
system.tol2bus.snoop_fanout::max_value              1                       # Request fanout histogram
system.tol2bus.snoop_fanout::total             880914                       # Request fanout histogram
system.tol2bus.reqLayer0.occupancy         1347876000                       # Layer occupancy (ticks)
system.tol2bus.reqLayer0.utilization              1.6                       # Layer utilization (%)
system.tol2bus.respLayer1.occupancy        1067397496                       # Layer occupancy (ticks)
system.tol2bus.respLayer1.utilization             1.3                       # Layer utilization (%)
system.tol2bus.respLayer0.occupancy           1213500                       # Layer occupancy (ticks)
system.tol2bus.respLayer0.utilization             0.0                       # Layer utilization (%)
system.voltage_domain.voltage                       1                       # Voltage in Volts
system.clk_domain.clock                          1000                       # Clock period in ticks
system.l2.pwrStateResidencyTicks::UNDEFINED  84006709500                       # Cumulative time (in ticks) in various power states
system.l2.demand_hits::.cpu.inst                  128                       # number of demand (read+write) hits
system.l2.demand_hits::.cpu.data               511247                       # number of demand (read+write) hits
system.l2.demand_hits::total                   511375                       # number of demand (read+write) hits
system.l2.overall_hits::.cpu.inst                 128                       # number of overall hits
system.l2.overall_hits::.cpu.data              511247                       # number of overall hits
system.l2.overall_hits::total                  511375                       # number of overall hits
system.l2.demand_misses::.cpu.inst                681                       # number of demand (read+write) misses
system.l2.demand_misses::.cpu.data             200351                       # number of demand (read+write) misses
system.l2.demand_misses::total                 201032                       # number of demand (read+write) misses
system.l2.overall_misses::.cpu.inst               681                       # number of overall misses
system.l2.overall_misses::.cpu.data            200351                       # number of overall misses
system.l2.overall_misses::total                201032                       # number of overall misses
system.l2.demand_miss_latency::.cpu.inst     55210000                       # number of demand (read+write) miss cycles
system.l2.demand_miss_latency::.cpu.data  16970653500                       # number of demand (read+write) miss cycles
system.l2.demand_miss_latency::total      17025863500                       # number of demand (read+write) miss cycles
system.l2.overall_miss_latency::.cpu.inst     55210000                       # number of overall miss cycles
system.l2.overall_miss_latency::.cpu.data  16970653500                       # number of overall miss cycles
system.l2.overall_miss_latency::total     17025863500                       # number of overall miss cycles
system.l2.demand_accesses::.cpu.inst              809                       # number of demand (read+write) accesses
system.l2.demand_accesses::.cpu.data           711598                       # number of demand (read+write) accesses
system.l2.demand_accesses::total               712407                       # number of demand (read+write) accesses
system.l2.overall_accesses::.cpu.inst             809                       # number of overall (read+write) accesses
system.l2.overall_accesses::.cpu.data          711598                       # number of overall (read+write) accesses
system.l2.overall_accesses::total              712407                       # number of overall (read+write) accesses
system.l2.demand_miss_rate::.cpu.inst        0.841780                       # miss rate for demand accesses
system.l2.demand_miss_rate::.cpu.data        0.281551                       # miss rate for demand accesses
system.l2.demand_miss_rate::total            0.282187                       # miss rate for demand accesses
system.l2.overall_miss_rate::.cpu.inst       0.841780                       # miss rate for overall accesses
system.l2.overall_miss_rate::.cpu.data       0.281551                       # miss rate for overall accesses
system.l2.overall_miss_rate::total           0.282187                       # miss rate for overall accesses
system.l2.demand_avg_miss_latency::.cpu.inst 81071.953010                       # average overall miss latency
system.l2.demand_avg_miss_latency::.cpu.data 84704.610908                       # average overall miss latency
system.l2.demand_avg_miss_latency::total 84692.305205                       # average overall miss latency
system.l2.overall_avg_miss_latency::.cpu.inst 81071.953010                       # average overall miss latency
system.l2.overall_avg_miss_latency::.cpu.data 84704.610908                       # average overall miss latency
system.l2.overall_avg_miss_latency::total 84692.305205                       # average overall miss latency
system.l2.blocked_cycles::no_mshrs                  0                       # number of cycles access was blocked
system.l2.blocked_cycles::no_targets                0                       # number of cycles access was blocked
system.l2.blocked::no_mshrs                         0                       # number of cycles access was blocked
system.l2.blocked::no_targets                       0                       # number of cycles access was blocked
system.l2.avg_blocked_cycles::no_mshrs            nan                       # average number of cycles each access was blocked
system.l2.avg_blocked_cycles::no_targets          nan                       # average number of cycles each access was blocked
system.l2.writebacks::.writebacks              111151                       # number of writebacks
system.l2.writebacks::total                    111151                       # number of writebacks
system.l2.demand_mshr_hits::.cpu.data               4                       # number of demand (read+write) MSHR hits
system.l2.demand_mshr_hits::total                   4                       # number of demand (read+write) MSHR hits
system.l2.overall_mshr_hits::.cpu.data              4                       # number of overall MSHR hits
system.l2.overall_mshr_hits::total                  4                       # number of overall MSHR hits
system.l2.demand_mshr_misses::.cpu.inst           681                       # number of demand (read+write) MSHR misses
system.l2.demand_mshr_misses::.cpu.data        200347                       # number of demand (read+write) MSHR misses
system.l2.demand_mshr_misses::total            201028                       # number of demand (read+write) MSHR misses
system.l2.overall_mshr_misses::.cpu.inst          681                       # number of overall MSHR misses
system.l2.overall_mshr_misses::.cpu.data       200347                       # number of overall MSHR misses
system.l2.overall_mshr_misses::total           201028                       # number of overall MSHR misses
system.l2.demand_mshr_miss_latency::.cpu.inst     48400000                       # number of demand (read+write) MSHR miss cycles
system.l2.demand_mshr_miss_latency::.cpu.data  14966949500                       # number of demand (read+write) MSHR miss cycles
system.l2.demand_mshr_miss_latency::total  15015349500                       # number of demand (read+write) MSHR miss cycles
system.l2.overall_mshr_miss_latency::.cpu.inst     48400000                       # number of overall MSHR miss cycles
system.l2.overall_mshr_miss_latency::.cpu.data  14966949500                       # number of overall MSHR miss cycles
system.l2.overall_mshr_miss_latency::total  15015349500                       # number of overall MSHR miss cycles
system.l2.demand_mshr_miss_rate::.cpu.inst     0.841780                       # mshr miss rate for demand accesses
system.l2.demand_mshr_miss_rate::.cpu.data     0.281545                       # mshr miss rate for demand accesses
system.l2.demand_mshr_miss_rate::total       0.282181                       # mshr miss rate for demand accesses
system.l2.overall_mshr_miss_rate::.cpu.inst     0.841780                       # mshr miss rate for overall accesses
system.l2.overall_mshr_miss_rate::.cpu.data     0.281545                       # mshr miss rate for overall accesses
system.l2.overall_mshr_miss_rate::total      0.282181                       # mshr miss rate for overall accesses
system.l2.demand_avg_mshr_miss_latency::.cpu.inst 71071.953010                       # average overall mshr miss latency
system.l2.demand_avg_mshr_miss_latency::.cpu.data 74705.134092                       # average overall mshr miss latency
system.l2.demand_avg_mshr_miss_latency::total 74692.826372                       # average overall mshr miss latency
system.l2.overall_avg_mshr_miss_latency::.cpu.inst 71071.953010                       # average overall mshr miss latency
system.l2.overall_avg_mshr_miss_latency::.cpu.data 74705.134092                       # average overall mshr miss latency
system.l2.overall_avg_mshr_miss_latency::total 74692.826372                       # average overall mshr miss latency
system.l2.replacements                         168507                       # number of replacements
system.l2.WritebackDirty_hits::.writebacks       635555                       # number of WritebackDirty hits
system.l2.WritebackDirty_hits::total           635555                       # number of WritebackDirty hits
system.l2.WritebackDirty_accesses::.writebacks       635555                       # number of WritebackDirty accesses(hits+misses)
system.l2.WritebackDirty_accesses::total       635555                       # number of WritebackDirty accesses(hits+misses)
system.l2.WritebackClean_hits::.writebacks          536                       # number of WritebackClean hits
system.l2.WritebackClean_hits::total              536                       # number of WritebackClean hits
system.l2.WritebackClean_accesses::.writebacks          536                       # number of WritebackClean accesses(hits+misses)
system.l2.WritebackClean_accesses::total          536                       # number of WritebackClean accesses(hits+misses)
system.l2.ReadExReq_hits::.cpu.data            150226                       # number of ReadExReq hits
system.l2.ReadExReq_hits::total                150226                       # number of ReadExReq hits
system.l2.ReadExReq_misses::.cpu.data          136120                       # number of ReadExReq misses
system.l2.ReadExReq_misses::total              136120                       # number of ReadExReq misses
system.l2.ReadExReq_miss_latency::.cpu.data  11838560500                       # number of ReadExReq miss cycles
system.l2.ReadExReq_miss_latency::total   11838560500                       # number of ReadExReq miss cycles
system.l2.ReadExReq_accesses::.cpu.data        286346                       # number of ReadExReq accesses(hits+misses)
system.l2.ReadExReq_accesses::total            286346                       # number of ReadExReq accesses(hits+misses)
system.l2.ReadExReq_miss_rate::.cpu.data     0.475369                       # miss rate for ReadExReq accesses
system.l2.ReadExReq_miss_rate::total         0.475369                       # miss rate for ReadExReq accesses
system.l2.ReadExReq_avg_miss_latency::.cpu.data 86971.499412                       # average ReadExReq miss latency
system.l2.ReadExReq_avg_miss_latency::total 86971.499412                       # average ReadExReq miss latency
system.l2.ReadExReq_mshr_misses::.cpu.data       136120                       # number of ReadExReq MSHR misses
system.l2.ReadExReq_mshr_misses::total         136120                       # number of ReadExReq MSHR misses
system.l2.ReadExReq_mshr_miss_latency::.cpu.data  10477370500                       # number of ReadExReq MSHR miss cycles
system.l2.ReadExReq_mshr_miss_latency::total  10477370500                       # number of ReadExReq MSHR miss cycles
system.l2.ReadExReq_mshr_miss_rate::.cpu.data     0.475369                       # mshr miss rate for ReadExReq accesses
system.l2.ReadExReq_mshr_miss_rate::total     0.475369                       # mshr miss rate for ReadExReq accesses
system.l2.ReadExReq_avg_mshr_miss_latency::.cpu.data 76971.572877                       # average ReadExReq mshr miss latency
system.l2.ReadExReq_avg_mshr_miss_latency::total 76971.572877                       # average ReadExReq mshr miss latency
system.l2.ReadCleanReq_hits::.cpu.inst            128                       # number of ReadCleanReq hits
system.l2.ReadCleanReq_hits::total                128                       # number of ReadCleanReq hits
system.l2.ReadCleanReq_misses::.cpu.inst          681                       # number of ReadCleanReq misses
system.l2.ReadCleanReq_misses::total              681                       # number of ReadCleanReq misses
system.l2.ReadCleanReq_miss_latency::.cpu.inst     55210000                       # number of ReadCleanReq miss cycles
system.l2.ReadCleanReq_miss_latency::total     55210000                       # number of ReadCleanReq miss cycles
system.l2.ReadCleanReq_accesses::.cpu.inst          809                       # number of ReadCleanReq accesses(hits+misses)
system.l2.ReadCleanReq_accesses::total            809                       # number of ReadCleanReq accesses(hits+misses)
system.l2.ReadCleanReq_miss_rate::.cpu.inst     0.841780                       # miss rate for ReadCleanReq accesses
system.l2.ReadCleanReq_miss_rate::total      0.841780                       # miss rate for ReadCleanReq accesses
system.l2.ReadCleanReq_avg_miss_latency::.cpu.inst 81071.953010                       # average ReadCleanReq miss latency
system.l2.ReadCleanReq_avg_miss_latency::total 81071.953010                       # average ReadCleanReq miss latency
system.l2.ReadCleanReq_mshr_misses::.cpu.inst          681                       # number of ReadCleanReq MSHR misses
system.l2.ReadCleanReq_mshr_misses::total          681                       # number of ReadCleanReq MSHR misses
system.l2.ReadCleanReq_mshr_miss_latency::.cpu.inst     48400000                       # number of ReadCleanReq MSHR miss cycles
system.l2.ReadCleanReq_mshr_miss_latency::total     48400000                       # number of ReadCleanReq MSHR miss cycles
system.l2.ReadCleanReq_mshr_miss_rate::.cpu.inst     0.841780                       # mshr miss rate for ReadCleanReq accesses
system.l2.ReadCleanReq_mshr_miss_rate::total     0.841780                       # mshr miss rate for ReadCleanReq accesses
system.l2.ReadCleanReq_avg_mshr_miss_latency::.cpu.inst 71071.953010                       # average ReadCleanReq mshr miss latency
system.l2.ReadCleanReq_avg_mshr_miss_latency::total 71071.953010                       # average ReadCleanReq mshr miss latency
system.l2.ReadSharedReq_hits::.cpu.data        361021                       # number of ReadSharedReq hits
system.l2.ReadSharedReq_hits::total            361021                       # number of ReadSharedReq hits
system.l2.ReadSharedReq_misses::.cpu.data        64231                       # number of ReadSharedReq misses
system.l2.ReadSharedReq_misses::total           64231                       # number of ReadSharedReq misses
system.l2.ReadSharedReq_miss_latency::.cpu.data   5132093000                       # number of ReadSharedReq miss cycles
system.l2.ReadSharedReq_miss_latency::total   5132093000                       # number of ReadSharedReq miss cycles
system.l2.ReadSharedReq_accesses::.cpu.data       425252                       # number of ReadSharedReq accesses(hits+misses)
system.l2.ReadSharedReq_accesses::total        425252                       # number of ReadSharedReq accesses(hits+misses)
system.l2.ReadSharedReq_miss_rate::.cpu.data     0.151042                       # miss rate for ReadSharedReq accesses
system.l2.ReadSharedReq_miss_rate::total     0.151042                       # miss rate for ReadSharedReq accesses
system.l2.ReadSharedReq_avg_miss_latency::.cpu.data 79900.562034                       # average ReadSharedReq miss latency
system.l2.ReadSharedReq_avg_miss_latency::total 79900.562034                       # average ReadSharedReq miss latency
system.l2.ReadSharedReq_mshr_hits::.cpu.data            4                       # number of ReadSharedReq MSHR hits
system.l2.ReadSharedReq_mshr_hits::total            4                       # number of ReadSharedReq MSHR hits
system.l2.ReadSharedReq_mshr_misses::.cpu.data        64227                       # number of ReadSharedReq MSHR misses
system.l2.ReadSharedReq_mshr_misses::total        64227                       # number of ReadSharedReq MSHR misses
system.l2.ReadSharedReq_mshr_miss_latency::.cpu.data   4489579000                       # number of ReadSharedReq MSHR miss cycles
system.l2.ReadSharedReq_mshr_miss_latency::total   4489579000                       # number of ReadSharedReq MSHR miss cycles
system.l2.ReadSharedReq_mshr_miss_rate::.cpu.data     0.151033                       # mshr miss rate for ReadSharedReq accesses
system.l2.ReadSharedReq_mshr_miss_rate::total     0.151033                       # mshr miss rate for ReadSharedReq accesses
system.l2.ReadSharedReq_avg_mshr_miss_latency::.cpu.data 69901.739144                       # average ReadSharedReq mshr miss latency
system.l2.ReadSharedReq_avg_mshr_miss_latency::total 69901.739144                       # average ReadSharedReq mshr miss latency
system.l2.tags.pwrStateResidencyTicks::UNDEFINED  84006709500                       # Cumulative time (in ticks) in various power states
system.l2.tags.tagsinuse                 31904.435307                       # Cycle average of tags in use
system.l2.tags.total_refs                     1423408                       # Total number of references to valid blocks.
system.l2.tags.sampled_refs                    201275                       # Sample count of references to valid blocks.
system.l2.tags.avg_refs                      7.071956                       # Average number of references to valid blocks.
system.l2.tags.warmup_cycle                     77000                       # Cycle when the warmup percentage was hit.
system.l2.tags.occ_blocks::.writebacks      70.784195                       # Average occupied blocks per requestor
system.l2.tags.occ_blocks::.cpu.inst        91.003765                       # Average occupied blocks per requestor
system.l2.tags.occ_blocks::.cpu.data     31742.647347                       # Average occupied blocks per requestor
system.l2.tags.occ_percent::.writebacks      0.002160                       # Average percentage of cache occupancy
system.l2.tags.occ_percent::.cpu.inst        0.002777                       # Average percentage of cache occupancy
system.l2.tags.occ_percent::.cpu.data        0.968709                       # Average percentage of cache occupancy
system.l2.tags.occ_percent::total            0.973646                       # Average percentage of cache occupancy
system.l2.tags.occ_task_id_blocks::1024         32768                       # Occupied blocks per task id
system.l2.tags.age_task_id_blocks_1024::0           87                       # Occupied blocks per task id
system.l2.tags.age_task_id_blocks_1024::1          115                       # Occupied blocks per task id
system.l2.tags.age_task_id_blocks_1024::2         1190                       # Occupied blocks per task id
system.l2.tags.age_task_id_blocks_1024::3        15800                       # Occupied blocks per task id
system.l2.tags.age_task_id_blocks_1024::4        15576                       # Occupied blocks per task id
system.l2.tags.occ_task_id_percent::1024            1                       # Percentage of cache occupancy per task id
system.l2.tags.tag_accesses                  11588579                       # Number of tag accesses
system.l2.tags.data_accesses                 11588579                       # Number of data accesses
system.cpu_voltage_domain.voltage                   1                       # Voltage in Volts
system.mem_ctrls.pwrStateResidencyTicks::UNDEFINED  84006709500                       # Cumulative time (in ticks) in various power states
system.mem_ctrls.bytes_read::.cpu.inst          43584                       # Number of bytes read from this memory
system.mem_ctrls.bytes_read::.cpu.data       12822144                       # Number of bytes read from this memory
system.mem_ctrls.bytes_read::total           12865728                       # Number of bytes read from this memory
system.mem_ctrls.bytes_inst_read::.cpu.inst        43584                       # Number of instructions bytes read from this memory
system.mem_ctrls.bytes_inst_read::total         43584                       # Number of instructions bytes read from this memory
system.mem_ctrls.bytes_written::.writebacks      7113664                       # Number of bytes written to this memory
system.mem_ctrls.bytes_written::total         7113664                       # Number of bytes written to this memory
system.mem_ctrls.num_reads::.cpu.inst             681                       # Number of read requests responded to by this memory
system.mem_ctrls.num_reads::.cpu.data          200346                       # Number of read requests responded to by this memory
system.mem_ctrls.num_reads::total              201027                       # Number of read requests responded to by this memory
system.mem_ctrls.num_writes::.writebacks       111151                       # Number of write requests responded to by this memory
system.mem_ctrls.num_writes::total             111151                       # Number of write requests responded to by this memory
system.mem_ctrls.bw_read::.cpu.inst            518816                       # Total read bandwidth from this memory (bytes/s)
system.mem_ctrls.bw_read::.cpu.data         152632380                       # Total read bandwidth from this memory (bytes/s)
system.mem_ctrls.bw_read::total             153151196                       # Total read bandwidth from this memory (bytes/s)
system.mem_ctrls.bw_inst_read::.cpu.inst       518816                       # Instruction read bandwidth from this memory (bytes/s)
system.mem_ctrls.bw_inst_read::total           518816                       # Instruction read bandwidth from this memory (bytes/s)
system.mem_ctrls.bw_write::.writebacks       84679712                       # Write bandwidth from this memory (bytes/s)
system.mem_ctrls.bw_write::total             84679712                       # Write bandwidth from this memory (bytes/s)
system.mem_ctrls.bw_total::.writebacks       84679712                       # Total bandwidth to/from this memory (bytes/s)
system.mem_ctrls.bw_total::.cpu.inst           518816                       # Total bandwidth to/from this memory (bytes/s)
system.mem_ctrls.bw_total::.cpu.data        152632380                       # Total bandwidth to/from this memory (bytes/s)
system.mem_ctrls.bw_total::total            237830908                       # Total bandwidth to/from this memory (bytes/s)
system.mem_ctrls.avgPriority_.writebacks::samples    111151.00                       # Average QoS priority value for accepted requests
system.mem_ctrls.avgPriority_.cpu.inst::samples       681.00                       # Average QoS priority value for accepted requests
system.mem_ctrls.avgPriority_.cpu.data::samples    200313.00                       # Average QoS priority value for accepted requests
system.mem_ctrls.priorityMinLatency      0.000000018750                       # per QoS priority minimum request to response latency (s)
system.mem_ctrls.priorityMaxLatency      0.002977734500                       # per QoS priority maximum request to response latency (s)
system.mem_ctrls.numReadWriteTurnArounds         6650                       # Number of turnarounds from READ to WRITE
system.mem_ctrls.numWriteReadTurnArounds         6651                       # Number of turnarounds from WRITE to READ
system.mem_ctrls.numStayReadState              524617                       # Number of times bus staying in READ state
system.mem_ctrls.numStayWriteState             104636                       # Number of times bus staying in WRITE state
system.mem_ctrls.readReqs                      201028                       # Number of read requests accepted
system.mem_ctrls.writeReqs                     111151                       # Number of write requests accepted
system.mem_ctrls.readBursts                    201028                       # Number of DRAM read bursts, including those serviced by the write queue
system.mem_ctrls.writeBursts                   111151                       # Number of DRAM write bursts, including those merged in the write queue
system.mem_ctrls.servicedByWrQ                     34                       # Number of DRAM read bursts serviced by the write queue
system.mem_ctrls.mergedWrBursts                     0                       # Number of DRAM write bursts merged with an existing one
system.mem_ctrls.neitherReadNorWriteReqs            0                       # Number of requests that are neither read nor write
system.mem_ctrls.perBankRdBursts::0             12862                       # Per bank write bursts
system.mem_ctrls.perBankRdBursts::1             12745                       # Per bank write bursts
system.mem_ctrls.perBankRdBursts::2             12824                       # Per bank write bursts
system.mem_ctrls.perBankRdBursts::3             12539                       # Per bank write bursts
system.mem_ctrls.perBankRdBursts::4             12514                       # Per bank write bursts
system.mem_ctrls.perBankRdBursts::5             12341                       # Per bank write bursts
system.mem_ctrls.perBankRdBursts::6             12294                       # Per bank write bursts
system.mem_ctrls.perBankRdBursts::7             12466                       # Per bank write bursts
system.mem_ctrls.perBankRdBursts::8             12453                       # Per bank write bursts
system.mem_ctrls.perBankRdBursts::9             12402                       # Per bank write bursts
system.mem_ctrls.perBankRdBursts::10            12452                       # Per bank write bursts
system.mem_ctrls.perBankRdBursts::11            12467                       # Per bank write bursts
system.mem_ctrls.perBankRdBursts::12            12641                       # Per bank write bursts
system.mem_ctrls.perBankRdBursts::13            12710                       # Per bank write bursts
system.mem_ctrls.perBankRdBursts::14            12665                       # Per bank write bursts
system.mem_ctrls.perBankRdBursts::15            12619                       # Per bank write bursts
system.mem_ctrls.perBankWrBursts::0              7147                       # Per bank write bursts
system.mem_ctrls.perBankWrBursts::1              7137                       # Per bank write bursts
system.mem_ctrls.perBankWrBursts::2              7169                       # Per bank write bursts
system.mem_ctrls.perBankWrBursts::3              6985                       # Per bank write bursts
system.mem_ctrls.perBankWrBursts::4              6986                       # Per bank write bursts
system.mem_ctrls.perBankWrBursts::5              6931                       # Per bank write bursts
system.mem_ctrls.perBankWrBursts::6              6825                       # Per bank write bursts
system.mem_ctrls.perBankWrBursts::7              6801                       # Per bank write bursts
system.mem_ctrls.perBankWrBursts::8              6796                       # Per bank write bursts
system.mem_ctrls.perBankWrBursts::9              6769                       # Per bank write bursts
system.mem_ctrls.perBankWrBursts::10             6864                       # Per bank write bursts
system.mem_ctrls.perBankWrBursts::11             6810                       # Per bank write bursts
system.mem_ctrls.perBankWrBursts::12             6918                       # Per bank write bursts
system.mem_ctrls.perBankWrBursts::13             6995                       # Per bank write bursts
system.mem_ctrls.perBankWrBursts::14             7019                       # Per bank write bursts
system.mem_ctrls.perBankWrBursts::15             6970                       # Per bank write bursts
system.mem_ctrls.avgRdQLen                       1.08                       # Average read queue length when enqueuing
system.mem_ctrls.avgWrQLen                      24.66                       # Average write queue length when enqueuing
system.mem_ctrls.totQLat                   2952686500                       # Total ticks spent queuing
system.mem_ctrls.totBusLat                 1004970000                       # Total ticks spent in databus transfers
system.mem_ctrls.totMemAccLat              6721324000                       # Total ticks spent from burst creation until serviced by the DRAM
system.mem_ctrls.avgQLat                     14690.42                       # Average queueing delay per DRAM burst
system.mem_ctrls.avgBusLat                    5000.00                       # Average bus latency per DRAM burst
system.mem_ctrls.avgMemAccLat                33440.42                       # Average memory access latency per DRAM burst
system.mem_ctrls.numRdRetry                         0                       # Number of times read queue was full causing retry
system.mem_ctrls.numWrRetry                         0                       # Number of times write queue was full causing retry
system.mem_ctrls.readRowHits                   137899                       # Number of row buffer hits during reads
system.mem_ctrls.writeRowHits                   69598                       # Number of row buffer hits during writes
system.mem_ctrls.readRowHitRate                 68.61                       # Row buffer hit rate for reads
system.mem_ctrls.writeRowHitRate                62.62                       # Row buffer hit rate for writes
system.mem_ctrls.readPktSize::0                     0                       # Read request sizes (log2)
system.mem_ctrls.readPktSize::1                     0                       # Read request sizes (log2)
system.mem_ctrls.readPktSize::2                     0                       # Read request sizes (log2)
system.mem_ctrls.readPktSize::3                     0                       # Read request sizes (log2)
system.mem_ctrls.readPktSize::4                     0                       # Read request sizes (log2)
system.mem_ctrls.readPktSize::5                     0                       # Read request sizes (log2)
system.mem_ctrls.readPktSize::6                201028                       # Read request sizes (log2)
system.mem_ctrls.writePktSize::0                    0                       # Write request sizes (log2)
system.mem_ctrls.writePktSize::1                    0                       # Write request sizes (log2)
system.mem_ctrls.writePktSize::2                    0                       # Write request sizes (log2)
system.mem_ctrls.writePktSize::3                    0                       # Write request sizes (log2)
system.mem_ctrls.writePktSize::4                    0                       # Write request sizes (log2)
system.mem_ctrls.writePktSize::5                    0                       # Write request sizes (log2)
system.mem_ctrls.writePktSize::6               111151                       # Write request sizes (log2)
system.mem_ctrls.rdQLenPdf::0                  139676                       # What read queue length does an incoming req see
system.mem_ctrls.rdQLenPdf::1                   58619                       # What read queue length does an incoming req see
system.mem_ctrls.rdQLenPdf::2                    2385                       # What read queue length does an incoming req see
system.mem_ctrls.rdQLenPdf::3                     313                       # What read queue length does an incoming req see
system.mem_ctrls.rdQLenPdf::4                       1                       # What read queue length does an incoming req see
system.mem_ctrls.rdQLenPdf::5                       0                       # What read queue length does an incoming req see
system.mem_ctrls.rdQLenPdf::6                       0                       # What read queue length does an incoming req see
system.mem_ctrls.rdQLenPdf::7                       0                       # What read queue length does an incoming req see
system.mem_ctrls.rdQLenPdf::8                       0                       # What read queue length does an incoming req see
system.mem_ctrls.rdQLenPdf::9                       0                       # What read queue length does an incoming req see
system.mem_ctrls.rdQLenPdf::10                      0                       # What read queue length does an incoming req see
system.mem_ctrls.rdQLenPdf::11                      0                       # What read queue length does an incoming req see
system.mem_ctrls.rdQLenPdf::12                      0                       # What read queue length does an incoming req see
system.mem_ctrls.rdQLenPdf::13                      0                       # What read queue length does an incoming req see
system.mem_ctrls.rdQLenPdf::14                      0                       # What read queue length does an incoming req see
system.mem_ctrls.rdQLenPdf::15                      0                       # What read queue length does an incoming req see
system.mem_ctrls.rdQLenPdf::16                      0                       # What read queue length does an incoming req see
system.mem_ctrls.rdQLenPdf::17                      0                       # What read queue length does an incoming req see
system.mem_ctrls.rdQLenPdf::18                      0                       # What read queue length does an incoming req see
system.mem_ctrls.rdQLenPdf::19                      0                       # What read queue length does an incoming req see
system.mem_ctrls.rdQLenPdf::20                      0                       # What read queue length does an incoming req see
system.mem_ctrls.rdQLenPdf::21                      0                       # What read queue length does an incoming req see
system.mem_ctrls.rdQLenPdf::22                      0                       # What read queue length does an incoming req see
system.mem_ctrls.rdQLenPdf::23                      0                       # What read queue length does an incoming req see
system.mem_ctrls.rdQLenPdf::24                      0                       # What read queue length does an incoming req see
system.mem_ctrls.rdQLenPdf::25                      0                       # What read queue length does an incoming req see
system.mem_ctrls.rdQLenPdf::26                      0                       # What read queue length does an incoming req see
system.mem_ctrls.rdQLenPdf::27                      0                       # What read queue length does an incoming req see
system.mem_ctrls.rdQLenPdf::28                      0                       # What read queue length does an incoming req see
system.mem_ctrls.rdQLenPdf::29                      0                       # What read queue length does an incoming req see
system.mem_ctrls.rdQLenPdf::30                      0                       # What read queue length does an incoming req see
system.mem_ctrls.rdQLenPdf::31                      0                       # What read queue length does an incoming req see
system.mem_ctrls.wrQLenPdf::0                       1                       # What write queue length does an incoming req see
system.mem_ctrls.wrQLenPdf::1                       1                       # What write queue length does an incoming req see
system.mem_ctrls.wrQLenPdf::2                       1                       # What write queue length does an incoming req see
system.mem_ctrls.wrQLenPdf::3                       1                       # What write queue length does an incoming req see
system.mem_ctrls.wrQLenPdf::4                       1                       # What write queue length does an incoming req see
system.mem_ctrls.wrQLenPdf::5                       1                       # What write queue length does an incoming req see
system.mem_ctrls.wrQLenPdf::6                       1                       # What write queue length does an incoming req see
system.mem_ctrls.wrQLenPdf::7                       1                       # What write queue length does an incoming req see
system.mem_ctrls.wrQLenPdf::8                       1                       # What write queue length does an incoming req see
system.mem_ctrls.wrQLenPdf::9                       1                       # What write queue length does an incoming req see
system.mem_ctrls.wrQLenPdf::10                      1                       # What write queue length does an incoming req see
system.mem_ctrls.wrQLenPdf::11                      1                       # What write queue length does an incoming req see
system.mem_ctrls.wrQLenPdf::12                      1                       # What write queue length does an incoming req see
system.mem_ctrls.wrQLenPdf::13                      1                       # What write queue length does an incoming req see
system.mem_ctrls.wrQLenPdf::14                      1                       # What write queue length does an incoming req see
system.mem_ctrls.wrQLenPdf::15                   2229                       # What write queue length does an incoming req see
system.mem_ctrls.wrQLenPdf::16                   2277                       # What write queue length does an incoming req see
system.mem_ctrls.wrQLenPdf::17                   5883                       # What write queue length does an incoming req see
system.mem_ctrls.wrQLenPdf::18                   6703                       # What write queue length does an incoming req see
system.mem_ctrls.wrQLenPdf::19                   6710                       # What write queue length does an incoming req see
system.mem_ctrls.wrQLenPdf::20                   6767                       # What write queue length does an incoming req see
system.mem_ctrls.wrQLenPdf::21                   6698                       # What write queue length does an incoming req see
system.mem_ctrls.wrQLenPdf::22                   6723                       # What write queue length does an incoming req see
system.mem_ctrls.wrQLenPdf::23                   6723                       # What write queue length does an incoming req see
system.mem_ctrls.wrQLenPdf::24                   6757                       # What write queue length does an incoming req see
system.mem_ctrls.wrQLenPdf::25                   6791                       # What write queue length does an incoming req see
system.mem_ctrls.wrQLenPdf::26                   6778                       # What write queue length does an incoming req see
system.mem_ctrls.wrQLenPdf::27                   6685                       # What write queue length does an incoming req see
system.mem_ctrls.wrQLenPdf::28                   6718                       # What write queue length does an incoming req see
system.mem_ctrls.wrQLenPdf::29                   6705                       # What write queue length does an incoming req see
system.mem_ctrls.wrQLenPdf::30                   6662                       # What write queue length does an incoming req see
system.mem_ctrls.wrQLenPdf::31                   6669                       # What write queue length does an incoming req see
system.mem_ctrls.wrQLenPdf::32                   6651                       # What write queue length does an incoming req see
system.mem_ctrls.wrQLenPdf::33                      7                       # What write queue length does an incoming req see
system.mem_ctrls.wrQLenPdf::34                      0                       # What write queue length does an incoming req see
system.mem_ctrls.wrQLenPdf::35                      0                       # What write queue length does an incoming req see
system.mem_ctrls.wrQLenPdf::36                      0                       # What write queue length does an incoming req see
system.mem_ctrls.wrQLenPdf::37                      0                       # What write queue length does an incoming req see
system.mem_ctrls.wrQLenPdf::38                      0                       # What write queue length does an incoming req see
system.mem_ctrls.wrQLenPdf::39                      0                       # What write queue length does an incoming req see
system.mem_ctrls.wrQLenPdf::40                      0                       # What write queue length does an incoming req see
system.mem_ctrls.wrQLenPdf::41                      0                       # What write queue length does an incoming req see
system.mem_ctrls.wrQLenPdf::42                      0                       # What write queue length does an incoming req see
system.mem_ctrls.wrQLenPdf::43                      0                       # What write queue length does an incoming req see
system.mem_ctrls.wrQLenPdf::44                      0                       # What write queue length does an incoming req see
system.mem_ctrls.wrQLenPdf::45                      0                       # What write queue length does an incoming req see
system.mem_ctrls.wrQLenPdf::46                      0                       # What write queue length does an incoming req see
system.mem_ctrls.wrQLenPdf::47                      0                       # What write queue length does an incoming req see
system.mem_ctrls.wrQLenPdf::48                      0                       # What write queue length does an incoming req see
system.mem_ctrls.wrQLenPdf::49                      0                       # What write queue length does an incoming req see
system.mem_ctrls.wrQLenPdf::50                      0                       # What write queue length does an incoming req see
system.mem_ctrls.wrQLenPdf::51                      0                       # What write queue length does an incoming req see
system.mem_ctrls.wrQLenPdf::52                      0                       # What write queue length does an incoming req see
system.mem_ctrls.wrQLenPdf::53                      0                       # What write queue length does an incoming req see
system.mem_ctrls.wrQLenPdf::54                      0                       # What write queue length does an incoming req see
system.mem_ctrls.wrQLenPdf::55                      0                       # What write queue length does an incoming req see
system.mem_ctrls.wrQLenPdf::56                      0                       # What write queue length does an incoming req see
system.mem_ctrls.wrQLenPdf::57                      0                       # What write queue length does an incoming req see
system.mem_ctrls.wrQLenPdf::58                      0                       # What write queue length does an incoming req see
system.mem_ctrls.wrQLenPdf::59                      0                       # What write queue length does an incoming req see
system.mem_ctrls.wrQLenPdf::60                      0                       # What write queue length does an incoming req see
system.mem_ctrls.wrQLenPdf::61                      0                       # What write queue length does an incoming req see
system.mem_ctrls.wrQLenPdf::62                      0                       # What write queue length does an incoming req see
system.mem_ctrls.wrQLenPdf::63                      0                       # What write queue length does an incoming req see
system.mem_ctrls.bytesPerActivate::samples       104610                       # Bytes accessed per row activation
system.mem_ctrls.bytesPerActivate::mean    190.945263                       # Bytes accessed per row activation
system.mem_ctrls.bytesPerActivate::gmean   111.330376                       # Bytes accessed per row activation
system.mem_ctrls.bytesPerActivate::stdev   255.828913                       # Bytes accessed per row activation
system.mem_ctrls.bytesPerActivate::0-127        69448     66.39%     66.39% # Bytes accessed per row activation
system.mem_ctrls.bytesPerActivate::128-255        13907     13.29%     79.68% # Bytes accessed per row activation
system.mem_ctrls.bytesPerActivate::256-383         2599      2.48%     82.17% # Bytes accessed per row activation
system.mem_ctrls.bytesPerActivate::384-511         1502      1.44%     83.60% # Bytes accessed per row activation
system.mem_ctrls.bytesPerActivate::512-639         9586      9.16%     92.77% # Bytes accessed per row activation
system.mem_ctrls.bytesPerActivate::640-767         1069      1.02%     93.79% # Bytes accessed per row activation
system.mem_ctrls.bytesPerActivate::768-895          494      0.47%     94.26% # Bytes accessed per row activation
system.mem_ctrls.bytesPerActivate::896-1023          344      0.33%     94.59% # Bytes accessed per row activation
system.mem_ctrls.bytesPerActivate::1024-1151         5661      5.41%    100.00% # Bytes accessed per row activation
system.mem_ctrls.bytesPerActivate::total       104610                       # Bytes accessed per row activation
system.mem_ctrls.rdPerTurnAround::samples         6651                       # Reads before turning the bus around for writes
system.mem_ctrls.rdPerTurnAround::mean      30.220117                       # Reads before turning the bus around for writes
system.mem_ctrls.rdPerTurnAround::gmean     23.764570                       # Reads before turning the bus around for writes
system.mem_ctrls.rdPerTurnAround::stdev     52.303021                       # Reads before turning the bus around for writes
system.mem_ctrls.rdPerTurnAround::0-127          6489     97.56%     97.56% # Reads before turning the bus around for writes
system.mem_ctrls.rdPerTurnAround::128-255           33      0.50%     98.06% # Reads before turning the bus around for writes
system.mem_ctrls.rdPerTurnAround::256-383          126      1.89%     99.95% # Reads before turning the bus around for writes
system.mem_ctrls.rdPerTurnAround::640-767            1      0.02%     99.97% # Reads before turning the bus around for writes
system.mem_ctrls.rdPerTurnAround::1664-1791            1      0.02%     99.98% # Reads before turning the bus around for writes
system.mem_ctrls.rdPerTurnAround::2432-2559            1      0.02%    100.00% # Reads before turning the bus around for writes
system.mem_ctrls.rdPerTurnAround::total          6651                       # Reads before turning the bus around for writes
system.mem_ctrls.wrPerTurnAround::samples         6650                       # Writes before turning the bus around for reads
system.mem_ctrls.wrPerTurnAround::mean      16.709474                       # Writes before turning the bus around for reads
[...]
system.cpu.icache.ReadReq_avg_miss_latency::total 72433.868974                       # average ReadReq miss latency
system.cpu.icache.ReadReq_mshr_misses::.cpu.inst          809                       # number of ReadReq MSHR misses
system.cpu.icache.ReadReq_mshr_misses::total          809                       # number of ReadReq MSHR misses
system.cpu.icache.ReadReq_mshr_miss_latency::.cpu.inst     57790000                       # number of ReadReq MSHR miss cycles
system.cpu.icache.ReadReq_mshr_miss_latency::total     57790000                       # number of ReadReq MSHR miss cycles
system.cpu.icache.ReadReq_mshr_miss_rate::.cpu.inst     0.000084                       # mshr miss rate for ReadReq accesses
system.cpu.icache.ReadReq_mshr_miss_rate::total     0.000084                       # mshr miss rate for ReadReq accesses
system.cpu.icache.ReadReq_avg_mshr_miss_latency::.cpu.inst 71433.868974                       # average ReadReq mshr miss latency
system.cpu.icache.ReadReq_avg_mshr_miss_latency::total 71433.868974                       # average ReadReq mshr miss latency
system.cpu.icache.tags.pwrStateResidencyTicks::UNDEFINED  84006709500                       # Cumulative time (in ticks) in various power states
system.cpu.icache.tags.tagsinuse           247.794472                       # Cycle average of tags in use
system.cpu.icache.tags.total_refs             9663418                       # Total number of references to valid blocks.
system.cpu.icache.tags.sampled_refs               809                       # Sample count of references to valid blocks.
system.cpu.icache.tags.avg_refs          11944.892460                       # Average number of references to valid blocks.
system.cpu.icache.tags.warmup_cycle             87500                       # Cycle when the warmup percentage was hit.
system.cpu.icache.tags.occ_blocks::.cpu.inst   247.794472                       # Average occupied blocks per requestor
system.cpu.icache.tags.occ_percent::.cpu.inst     0.967947                       # Average percentage of cache occupancy
system.cpu.icache.tags.occ_percent::total     0.967947                       # Average percentage of cache occupancy
system.cpu.icache.tags.occ_task_id_blocks::1024          255                       # Occupied blocks per task id
system.cpu.icache.tags.age_task_id_blocks_1024::3          106                       # Occupied blocks per task id
system.cpu.icache.tags.age_task_id_blocks_1024::4          149                       # Occupied blocks per task id
system.cpu.icache.tags.occ_task_id_percent::1024     0.996094                       # Percentage of cache occupancy per task id
system.cpu.icache.tags.tag_accesses          19327645                       # Number of tag accesses
system.cpu.icache.tags.data_accesses         19327645                       # Number of data accesses
system.cpu.dtb.walker.pwrStateResidencyTicks::UNDEFINED  84006709500                       # Cumulative time (in ticks) in various power states
system.cpu.dtb.stage2_mmu.stage2_tlb.walker.pwrStateResidencyTicks::UNDEFINED  84006709500                       # Cumulative time (in ticks) in various power states
system.cpu.dcache.pwrStateResidencyTicks::UNDEFINED  84006709500                       # Cumulative time (in ticks) in various power states
system.cpu.dcache.demand_hits::.cpu.data     51305782                       # number of demand (read+write) hits
system.cpu.dcache.demand_hits::total         51305782                       # number of demand (read+write) hits
system.cpu.dcache.overall_hits::.cpu.data     51306285                       # number of overall hits
system.cpu.dcache.overall_hits::total        51306285                       # number of overall hits
system.cpu.dcache.demand_misses::.cpu.data       762768                       # number of demand (read+write) misses
system.cpu.dcache.demand_misses::total         762768                       # number of demand (read+write) misses
system.cpu.dcache.overall_misses::.cpu.data       770679                       # number of overall misses
system.cpu.dcache.overall_misses::total        770679                       # number of overall misses
system.cpu.dcache.demand_miss_latency::.cpu.data  25053651500                       # number of demand (read+write) miss cycles
system.cpu.dcache.demand_miss_latency::total  25053651500                       # number of demand (read+write) miss cycles
system.cpu.dcache.overall_miss_latency::.cpu.data  25053651500                       # number of overall miss cycles
system.cpu.dcache.overall_miss_latency::total  25053651500                       # number of overall miss cycles
system.cpu.dcache.demand_accesses::.cpu.data     52068550                       # number of demand (read+write) accesses
system.cpu.dcache.demand_accesses::total     52068550                       # number of demand (read+write) accesses
system.cpu.dcache.overall_accesses::.cpu.data     52076964                       # number of overall (read+write) accesses
system.cpu.dcache.overall_accesses::total     52076964                       # number of overall (read+write) accesses
system.cpu.dcache.demand_miss_rate::.cpu.data     0.014649                       # miss rate for demand accesses
system.cpu.dcache.demand_miss_rate::total     0.014649                       # miss rate for demand accesses
system.cpu.dcache.overall_miss_rate::.cpu.data     0.014799                       # miss rate for overall accesses
system.cpu.dcache.overall_miss_rate::total     0.014799                       # miss rate for overall accesses
system.cpu.dcache.demand_avg_miss_latency::.cpu.data 32845.703412                       # average overall miss latency
system.cpu.dcache.demand_avg_miss_latency::total 32845.703412                       # average overall miss latency
system.cpu.dcache.overall_avg_miss_latency::.cpu.data 32508.543116                       # average overall miss latency
system.cpu.dcache.overall_avg_miss_latency::total 32508.543116                       # average overall miss latency
system.cpu.dcache.blocked_cycles::no_mshrs       205901                       # number of cycles access was blocked
system.cpu.dcache.blocked_cycles::no_targets            0                       # number of cycles access was blocked
system.cpu.dcache.blocked::no_mshrs              3271                       # number of cycles access was blocked
system.cpu.dcache.blocked::no_targets               0                       # number of cycles access was blocked
system.cpu.dcache.avg_blocked_cycles::no_mshrs    62.947417                       # average number of cycles each access was blocked
system.cpu.dcache.avg_blocked_cycles::no_targets          nan                       # average number of cycles each access was blocked
system.cpu.dcache.writebacks::.writebacks       635555                       # number of writebacks
system.cpu.dcache.writebacks::total            635555                       # number of writebacks
system.cpu.dcache.demand_mshr_hits::.cpu.data        59076                       # number of demand (read+write) MSHR hits
system.cpu.dcache.demand_mshr_hits::total        59076                       # number of demand (read+write) MSHR hits
system.cpu.dcache.overall_mshr_hits::.cpu.data        59076                       # number of overall MSHR hits
system.cpu.dcache.overall_mshr_hits::total        59076                       # number of overall MSHR hits
system.cpu.dcache.demand_mshr_misses::.cpu.data       703692                       # number of demand (read+write) MSHR misses
system.cpu.dcache.demand_mshr_misses::total       703692                       # number of demand (read+write) MSHR misses
system.cpu.dcache.overall_mshr_misses::.cpu.data       711598                       # number of overall MSHR misses
system.cpu.dcache.overall_mshr_misses::total       711598                       # number of overall MSHR misses
system.cpu.dcache.demand_mshr_miss_latency::.cpu.data  22734338000                       # number of demand (read+write) MSHR miss cycles
system.cpu.dcache.demand_mshr_miss_latency::total  22734338000                       # number of demand (read+write) MSHR miss cycles
system.cpu.dcache.overall_mshr_miss_latency::.cpu.data  23410951499                       # number of overall MSHR miss cycles
system.cpu.dcache.overall_mshr_miss_latency::total  23410951499                       # number of overall MSHR miss cycles
system.cpu.dcache.demand_mshr_miss_rate::.cpu.data     0.013515                       # mshr miss rate for demand accesses
system.cpu.dcache.demand_mshr_miss_rate::total     0.013515                       # mshr miss rate for demand accesses
system.cpu.dcache.overall_mshr_miss_rate::.cpu.data     0.013664                       # mshr miss rate for overall accesses
system.cpu.dcache.overall_mshr_miss_rate::total     0.013664                       # mshr miss rate for overall accesses
system.cpu.dcache.demand_avg_mshr_miss_latency::.cpu.data 32307.228162                       # average overall mshr miss latency
system.cpu.dcache.demand_avg_mshr_miss_latency::total 32307.228162                       # average overall mshr miss latency
system.cpu.dcache.overall_avg_mshr_miss_latency::.cpu.data 32899.124926                       # average overall mshr miss latency
system.cpu.dcache.overall_avg_mshr_miss_latency::total 32899.124926                       # average overall mshr miss latency
system.cpu.dcache.replacements                 710573                       # number of replacements
system.cpu.dcache.ReadReq_hits::.cpu.data     40700494                       # number of ReadReq hits
system.cpu.dcache.ReadReq_hits::total        40700494                       # number of ReadReq hits
system.cpu.dcache.ReadReq_misses::.cpu.data       417955                       # number of ReadReq misses
system.cpu.dcache.ReadReq_misses::total        417955                       # number of ReadReq misses
system.cpu.dcache.ReadReq_miss_latency::.cpu.data   9329960500                       # number of ReadReq miss cycles
system.cpu.dcache.ReadReq_miss_latency::total   9329960500                       # number of ReadReq miss cycles
system.cpu.dcache.ReadReq_accesses::.cpu.data     41118449                       # number of ReadReq accesses(hits+misses)
system.cpu.dcache.ReadReq_accesses::total     41118449                       # number of ReadReq accesses(hits+misses)
system.cpu.dcache.ReadReq_miss_rate::.cpu.data     0.010165                       # miss rate for ReadReq accesses
system.cpu.dcache.ReadReq_miss_rate::total     0.010165                       # miss rate for ReadReq accesses
system.cpu.dcache.ReadReq_avg_miss_latency::.cpu.data 22322.882846                       # average ReadReq miss latency
system.cpu.dcache.ReadReq_avg_miss_latency::total 22322.882846                       # average ReadReq miss latency
system.cpu.dcache.ReadReq_mshr_hits::.cpu.data          609                       # number of ReadReq MSHR hits
system.cpu.dcache.ReadReq_mshr_hits::total          609                       # number of ReadReq MSHR hits
system.cpu.dcache.ReadReq_mshr_misses::.cpu.data       417346                       # number of ReadReq MSHR misses
system.cpu.dcache.ReadReq_mshr_misses::total       417346                       # number of ReadReq MSHR misses
system.cpu.dcache.ReadReq_mshr_miss_latency::.cpu.data   8887225500                       # number of ReadReq MSHR miss cycles
system.cpu.dcache.ReadReq_mshr_miss_latency::total   8887225500                       # number of ReadReq MSHR miss cycles
system.cpu.dcache.ReadReq_mshr_miss_rate::.cpu.data     0.010150                       # mshr miss rate for ReadReq accesses
system.cpu.dcache.ReadReq_mshr_miss_rate::total     0.010150                       # mshr miss rate for ReadReq accesses
system.cpu.dcache.ReadReq_avg_mshr_miss_latency::.cpu.data 21294.622448                       # average ReadReq mshr miss latency
system.cpu.dcache.ReadReq_avg_mshr_miss_latency::total 21294.622448                       # average ReadReq mshr miss latency
system.cpu.dcache.WriteReq_hits::.cpu.data     10605288                       # number of WriteReq hits
system.cpu.dcache.WriteReq_hits::total       10605288                       # number of WriteReq hits
system.cpu.dcache.WriteReq_misses::.cpu.data       344813                       # number of WriteReq misses
system.cpu.dcache.WriteReq_misses::total       344813                       # number of WriteReq misses
system.cpu.dcache.WriteReq_miss_latency::.cpu.data  15723691000                       # number of WriteReq miss cycles
system.cpu.dcache.WriteReq_miss_latency::total  15723691000                       # number of WriteReq miss cycles
system.cpu.dcache.WriteReq_accesses::.cpu.data     10950101                       # number of WriteReq accesses(hits+misses)
system.cpu.dcache.WriteReq_accesses::total     10950101                       # number of WriteReq accesses(hits+misses)
system.cpu.dcache.WriteReq_miss_rate::.cpu.data     0.031489                       # miss rate for WriteReq accesses
system.cpu.dcache.WriteReq_miss_rate::total     0.031489                       # miss rate for WriteReq accesses
system.cpu.dcache.WriteReq_avg_miss_latency::.cpu.data 45600.632807                       # average WriteReq miss latency
system.cpu.dcache.WriteReq_avg_miss_latency::total 45600.632807                       # average WriteReq miss latency
system.cpu.dcache.WriteReq_mshr_hits::.cpu.data        58467                       # number of WriteReq MSHR hits
system.cpu.dcache.WriteReq_mshr_hits::total        58467                       # number of WriteReq MSHR hits
system.cpu.dcache.WriteReq_mshr_misses::.cpu.data       286346                       # number of WriteReq MSHR misses
system.cpu.dcache.WriteReq_mshr_misses::total       286346                       # number of WriteReq MSHR misses
system.cpu.dcache.WriteReq_mshr_miss_latency::.cpu.data  13847112500                       # number of WriteReq MSHR miss cycles
system.cpu.dcache.WriteReq_mshr_miss_latency::total  13847112500                       # number of WriteReq MSHR miss cycles
system.cpu.dcache.WriteReq_mshr_miss_rate::.cpu.data     0.026150                       # mshr miss rate for WriteReq accesses
system.cpu.dcache.WriteReq_mshr_miss_rate::total     0.026150                       # mshr miss rate for WriteReq accesses
system.cpu.dcache.WriteReq_avg_mshr_miss_latency::.cpu.data 48357.974269                       # average WriteReq mshr miss latency
system.cpu.dcache.WriteReq_avg_mshr_miss_latency::total 48357.974269                       # average WriteReq mshr miss latency
system.cpu.dcache.SoftPFReq_hits::.cpu.data          503                       # number of SoftPFReq hits
system.cpu.dcache.SoftPFReq_hits::total           503                       # number of SoftPFReq hits
system.cpu.dcache.SoftPFReq_misses::.cpu.data         7911                       # number of SoftPFReq misses
system.cpu.dcache.SoftPFReq_misses::total         7911                       # number of SoftPFReq misses
system.cpu.dcache.SoftPFReq_accesses::.cpu.data         8414                       # number of SoftPFReq accesses(hits+misses)
system.cpu.dcache.SoftPFReq_accesses::total         8414                       # number of SoftPFReq accesses(hits+misses)
system.cpu.dcache.SoftPFReq_miss_rate::.cpu.data     0.940219                       # miss rate for SoftPFReq accesses
system.cpu.dcache.SoftPFReq_miss_rate::total     0.940219                       # miss rate for SoftPFReq accesses
system.cpu.dcache.SoftPFReq_mshr_misses::.cpu.data         7906                       # number of SoftPFReq MSHR misses
system.cpu.dcache.SoftPFReq_mshr_misses::total         7906                       # number of SoftPFReq MSHR misses
system.cpu.dcache.SoftPFReq_mshr_miss_latency::.cpu.data    676613499                       # number of SoftPFReq MSHR miss cycles
system.cpu.dcache.SoftPFReq_mshr_miss_latency::total    676613499                       # number of SoftPFReq MSHR miss cycles
system.cpu.dcache.SoftPFReq_mshr_miss_rate::.cpu.data     0.939624                       # mshr miss rate for SoftPFReq accesses
system.cpu.dcache.SoftPFReq_mshr_miss_rate::total     0.939624                       # mshr miss rate for SoftPFReq accesses
system.cpu.dcache.SoftPFReq_avg_mshr_miss_latency::.cpu.data 85582.279155                       # average SoftPFReq mshr miss latency
system.cpu.dcache.SoftPFReq_avg_mshr_miss_latency::total 85582.279155                       # average SoftPFReq mshr miss latency
system.cpu.dcache.LoadLockedReq_hits::.cpu.data           38                       # number of LoadLockedReq hits
system.cpu.dcache.LoadLockedReq_hits::total           38                       # number of LoadLockedReq hits
system.cpu.dcache.LoadLockedReq_accesses::.cpu.data           38                       # number of LoadLockedReq accesses(hits+misses)
system.cpu.dcache.LoadLockedReq_accesses::total           38                       # number of LoadLockedReq accesses(hits+misses)
system.cpu.dcache.StoreCondReq_hits::.cpu.data           38                       # number of StoreCondReq hits
system.cpu.dcache.StoreCondReq_hits::total           38                       # number of StoreCondReq hits
system.cpu.dcache.StoreCondReq_accesses::.cpu.data           38                       # number of StoreCondReq accesses(hits+misses)
system.cpu.dcache.StoreCondReq_accesses::total           38                       # number of StoreCondReq accesses(hits+misses)
system.cpu.dcache.tags.pwrStateResidencyTicks::UNDEFINED  84006709500                       # Cumulative time (in ticks) in various power states
system.cpu.dcache.tags.tagsinuse          1008.146075                       # Cycle average of tags in use
system.cpu.dcache.tags.total_refs            52017958                       # Total number of references to valid blocks.
system.cpu.dcache.tags.sampled_refs            711597                       # Sample count of references to valid blocks.
system.cpu.dcache.tags.avg_refs             73.100305                       # Average number of references to valid blocks.
system.cpu.dcache.tags.warmup_cycle            176500                       # Cycle when the warmup percentage was hit.
system.cpu.dcache.tags.occ_blocks::.cpu.data  1008.146075                       # Average occupied blocks per requestor
system.cpu.dcache.tags.occ_percent::.cpu.data     0.984518                       # Average percentage of cache occupancy
system.cpu.dcache.tags.occ_percent::total     0.984518                       # Average percentage of cache occupancy
system.cpu.dcache.tags.occ_task_id_blocks::1024         1024                       # Occupied blocks per task id
system.cpu.dcache.tags.age_task_id_blocks_1024::0          234                       # Occupied blocks per task id
system.cpu.dcache.tags.age_task_id_blocks_1024::1          441                       # Occupied blocks per task id
system.cpu.dcache.tags.age_task_id_blocks_1024::2          347                       # Occupied blocks per task id
system.cpu.dcache.tags.age_task_id_blocks_1024::3            2                       # Occupied blocks per task id
system.cpu.dcache.tags.occ_task_id_percent::1024            1                       # Percentage of cache occupancy per task id
system.cpu.dcache.tags.tag_accesses         104865677                       # Number of tag accesses
system.cpu.dcache.tags.data_accesses        104865677                       # Number of data accesses
system.cpu.itb.walker.pwrStateResidencyTicks::UNDEFINED  84006709500                       # Cumulative time (in ticks) in various power states
system.cpu.itb.stage2_mmu.stage2_tlb.walker.pwrStateResidencyTicks::UNDEFINED  84006709500                       # Cumulative time (in ticks) in various power states

---------- End Simulation Statistics   ----------
