
---------- Begin Simulation Statistics ----------
final_tick                                81217308500                       # Number of ticks from beginning of simulation (restored from checkpoints and never reset)
host_inst_rate                                 247674                       # Simulator instruction rate (inst/s)
host_mem_usage                                 702396                       # Number of bytes of host memory used
host_op_rate                                   248160                       # Simulator op (including micro ops) rate (op/s)
host_seconds                                   403.76                       # Real time elapsed on the host
host_tick_rate                              201154237                       # Simulator tick rate (ticks/s)
sim_freq                                 1000000000000                       # Frequency of simulated ticks
sim_insts                                   100000001                       # Number of instructions simulated
sim_ops                                     100196363                       # Number of ops (including micro ops) simulated
sim_seconds                                  0.081217                       # Number of seconds simulated
sim_ticks                                 81217308500                       # Number of ticks simulated
system.cpu.branchPred.BTBCorrect                    0                       # Number of correct BTB predictions (this stat may not work properly.
system.cpu.branchPred.BTBHitPct             99.693930                       # BTB Hit Percentage
system.cpu.branchPred.BTBHits                 2095377                       # Number of BTB hits
system.cpu.branchPred.BTBLookups              2101810                       # Number of BTB lookups
system.cpu.branchPred.RASInCorrect                  5                       # Number of incorrect RAS predictions.
system.cpu.branchPred.condIncorrect             81341                       # Number of conditional branches incorrect
system.cpu.branchPred.condPredicted           3727563                       # Number of conditional branches predicted
system.cpu.branchPred.indirectHits                291                       # Number of indirect target hits.
system.cpu.branchPred.indirectLookups             809                       # Number of indirect predictor lookups.
system.cpu.branchPred.indirectMisses              518                       # Number of indirect misses.
system.cpu.branchPred.lookups                 4477640                       # Number of BP lookups
system.cpu.branchPred.usedRAS                   65342                       # Number of times the RAS was used to get a target.
system.cpu.branchPredindirectMispredicted          171                       # Number of mispredicted indirect branches.
system.cpu.committedInsts                   100000001                       # Number of instructions committed
system.cpu.committedOps                     100196363                       # Number of ops (including micro ops) committed
system.cpu.cpi                               1.624346                       # CPI: cycles per instruction
system.cpu.discardedOps                        190582                       # Number of ops (including micro ops) which were discarded before commit
system.cpu.dtb.accesses                             0                       # DTB accesses
system.cpu.dtb.align_faults                         0                       # Number of TLB faults due to alignment restrictions
system.cpu.dtb.domain_faults                        0                       # Number of TLB faults due to domain restrictions
system.cpu.dtb.flush_entries                        0                       # Number of entries that have been flushed from TLB
system.cpu.dtb.flush_tlb                            0                       # Number of times complete TLB was flushed
system.cpu.dtb.flush_tlb_asid                       0                       # Number of times TLB was flushed by ASID
system.cpu.dtb.flush_tlb_mva                        0                       # Number of times TLB was flushed by MVA
system.cpu.dtb.flush_tlb_mva_asid                   0                       # Number of times TLB was flushed by MVA & ASID
system.cpu.dtb.hits                                 0                       # DTB hits
system.cpu.dtb.inst_accesses                        0                       # ITB inst accesses
system.cpu.dtb.inst_hits                            0                       # ITB inst hits
system.cpu.dtb.inst_misses                          0                       # ITB inst misses
system.cpu.dtb.misses                               0                       # DTB misses
system.cpu.dtb.perms_faults                         0                       # Number of TLB faults due to permissions restrictions
system.cpu.dtb.prefetch_faults                      0                       # Number of TLB faults due to prefetch
system.cpu.dtb.read_accesses                        0                       # DTB read accesses
system.cpu.dtb.read_hits                            0                       # DTB read hits
system.cpu.dtb.read_misses                          0                       # DTB read misses
system.cpu.dtb.stage2_mmu.stage2_tlb.accesses            0                       # DTB accesses
system.cpu.dtb.stage2_mmu.stage2_tlb.align_faults            0                       # Number of TLB faults due to alignment restrictions
system.cpu.dtb.stage2_mmu.stage2_tlb.domain_faults            0                       # Number of TLB faults due to domain restrictions
system.cpu.dtb.stage2_mmu.stage2_tlb.flush_entries            0                       # Number of entries that have been flushed from TLB
system.cpu.dtb.stage2_mmu.stage2_tlb.flush_tlb            0                       # Number of times complete TLB was flushed
system.cpu.dtb.stage2_mmu.stage2_tlb.flush_tlb_asid            0                       # Number of times TLB was flushed by ASID
system.cpu.dtb.stage2_mmu.stage2_tlb.flush_tlb_mva            0                       # Number of times TLB was flushed by MVA
system.cpu.dtb.stage2_mmu.stage2_tlb.flush_tlb_mva_asid            0                       # Number of times TLB was flushed by MVA & ASID
system.cpu.dtb.stage2_mmu.stage2_tlb.hits            0                       # DTB hits
system.cpu.dtb.stage2_mmu.stage2_tlb.inst_accesses            0                       # ITB inst accesses
system.cpu.dtb.stage2_mmu.stage2_tlb.inst_hits            0                       # ITB inst hits
system.cpu.dtb.stage2_mmu.stage2_tlb.inst_misses            0                       # ITB inst misses
system.cpu.dtb.stage2_mmu.stage2_tlb.misses            0                       # DTB misses
system.cpu.dtb.stage2_mmu.stage2_tlb.perms_faults            0                       # Number of TLB faults due to permissions restrictions
system.cpu.dtb.stage2_mmu.stage2_tlb.prefetch_faults            0                       # Number of TLB faults due to prefetch
system.cpu.dtb.stage2_mmu.stage2_tlb.read_accesses            0                       # DTB read accesses
system.cpu.dtb.stage2_mmu.stage2_tlb.read_hits            0                       # DTB read hits
system.cpu.dtb.stage2_mmu.stage2_tlb.read_misses            0                       # DTB read misses
system.cpu.dtb.stage2_mmu.stage2_tlb.walker.walkRequestOrigin_Requested::Data            0                       # Table walker requests started/completed, data/inst
system.cpu.dtb.stage2_mmu.stage2_tlb.walker.walkRequestOrigin_Requested::Inst            0                       # Table walker requests started/completed, data/inst
system.cpu.dtb.stage2_mmu.stage2_tlb.walker.walkRequestOrigin_Requested::total            0                       # Table walker requests started/completed, data/inst
system.cpu.dtb.stage2_mmu.stage2_tlb.walker.walkRequestOrigin_Completed::Data            0                       # Table walker requests started/completed, data/inst
system.cpu.dtb.stage2_mmu.stage2_tlb.walker.walkRequestOrigin_Completed::Inst            0                       # Table walker requests started/completed, data/inst
system.cpu.dtb.stage2_mmu.stage2_tlb.walker.walkRequestOrigin_Completed::total            0                       # Table walker requests started/completed, data/inst
system.cpu.dtb.stage2_mmu.stage2_tlb.walker.walkRequestOrigin::total            0                       # Table walker requests started/completed, data/inst
system.cpu.dtb.stage2_mmu.stage2_tlb.walker.walks            0                       # Table walker walks requested
system.cpu.dtb.stage2_mmu.stage2_tlb.write_accesses            0                       # DTB write accesses
system.cpu.dtb.stage2_mmu.stage2_tlb.write_hits            0                       # DTB write hits
system.cpu.dtb.stage2_mmu.stage2_tlb.write_misses            0                       # DTB write misses
system.cpu.dtb.walker.walkRequestOrigin_Requested::Data            0                       # Table walker requests started/completed, data/inst
system.cpu.dtb.walker.walkRequestOrigin_Requested::Inst            0                       # Table walker requests started/completed, data/inst
system.cpu.dtb.walker.walkRequestOrigin_Requested::total            0                       # Table walker requests started/completed, data/inst
system.cpu.dtb.walker.walkRequestOrigin_Completed::Data            0                       # Table walker requests started/completed, data/inst
system.cpu.dtb.walker.walkRequestOrigin_Completed::Inst            0                       # Table walker requests started/completed, data/inst
system.cpu.dtb.walker.walkRequestOrigin_Completed::total            0                       # Table walker requests started/completed, data/inst
system.cpu.dtb.walker.walkRequestOrigin::total            0                       # Table walker requests started/completed, data/inst
system.cpu.dtb.walker.walks                         0                       # Table walker walks requested
system.cpu.dtb.write_accesses                       0                       # DTB write accesses
system.cpu.dtb.write_hits                           0                       # DTB write hits
system.cpu.dtb.write_misses                         0                       # DTB write misses
system.cpu.fetch2.amo_instructions                  0                       # Number of memory atomic instructions successfully decoded
system.cpu.fetch2.fp_instructions                   0                       # Number of floating point instructions successfully decoded
system.cpu.fetch2.int_instructions           42609948                       # Number of integer instructions successfully decoded
system.cpu.fetch2.load_instructions          43402149                       # Number of memory load instructions successfully decoded
system.cpu.fetch2.store_instructions         11001317                       # Number of memory store instructions successfully decoded
system.cpu.fetch2.vec_instructions                  0                       # Number of SIMD instructions successfully decoded
system.cpu.idleCycles                        29966410                       # Total number of cycles that the object has spent stopped
system.cpu.ipc                               0.615632                       # IPC: instructions per cycle
system.cpu.itb.accesses                             0                       # DTB accesses
system.cpu.itb.align_faults                         0                       # Number of TLB faults due to alignment restrictions
system.cpu.itb.domain_faults                        0                       # Number of TLB faults due to domain restrictions
system.cpu.itb.flush_entries                        0                       # Number of entries that have been flushed from TLB
system.cpu.itb.flush_tlb                            0                       # Number of times complete TLB was flushed
system.cpu.itb.flush_tlb_asid                       0                       # Number of times TLB was flushed by ASID
system.cpu.itb.flush_tlb_mva                        0                       # Number of times TLB was flushed by MVA
system.cpu.itb.flush_tlb_mva_asid                   0                       # Number of times TLB was flushed by MVA & ASID
system.cpu.itb.hits                                 0                       # DTB hits
system.cpu.itb.inst_accesses                        0                       # ITB inst accesses
system.cpu.itb.inst_hits                            0                       # ITB inst hits
system.cpu.itb.inst_misses                          0                       # ITB inst misses
system.cpu.itb.misses                               0                       # DTB misses
system.cpu.itb.perms_faults                         0                       # Number of TLB faults due to permissions restrictions
system.cpu.itb.prefetch_faults                      0                       # Number of TLB faults due to prefetch
system.cpu.itb.read_accesses                        0                       # DTB read accesses
system.cpu.itb.read_hits                            0                       # DTB read hits
system.cpu.itb.read_misses                          0                       # DTB read misses
system.cpu.itb.stage2_mmu.stage2_tlb.accesses            0                       # DTB accesses
system.cpu.itb.stage2_mmu.stage2_tlb.align_faults            0                       # Number of TLB faults due to alignment restrictions
system.cpu.itb.stage2_mmu.stage2_tlb.domain_faults            0                       # Number of TLB faults due to domain restrictions
system.cpu.itb.stage2_mmu.stage2_tlb.flush_entries            0                       # Number of entries that have been flushed from TLB
system.cpu.itb.stage2_mmu.stage2_tlb.flush_tlb            0                       # Number of times complete TLB was flushed
system.cpu.itb.stage2_mmu.stage2_tlb.flush_tlb_asid            0                       # Number of times TLB was flushed by ASID
system.cpu.itb.stage2_mmu.stage2_tlb.flush_tlb_mva            0                       # Number of times TLB was flushed by MVA
system.cpu.itb.stage2_mmu.stage2_tlb.flush_tlb_mva_asid            0                       # Number of times TLB was flushed by MVA & ASID
system.cpu.itb.stage2_mmu.stage2_tlb.hits            0                       # DTB hits
system.cpu.itb.stage2_mmu.stage2_tlb.inst_accesses            0                       # ITB inst accesses
system.cpu.itb.stage2_mmu.stage2_tlb.inst_hits            0                       # ITB inst hits
system.cpu.itb.stage2_mmu.stage2_tlb.inst_misses            0                       # ITB inst misses
system.cpu.itb.stage2_mmu.stage2_tlb.misses            0                       # DTB misses
system.cpu.itb.stage2_mmu.stage2_tlb.perms_faults            0                       # Number of TLB faults due to permissions restrictions
system.cpu.itb.stage2_mmu.stage2_tlb.prefetch_faults            0                       # Number of TLB faults due to prefetch
system.cpu.itb.stage2_mmu.stage2_tlb.read_accesses            0                       # DTB read accesses
system.cpu.itb.stage2_mmu.stage2_tlb.read_hits            0                       # DTB read hits
system.cpu.itb.stage2_mmu.stage2_tlb.read_misses            0                       # DTB read misses
system.cpu.itb.stage2_mmu.stage2_tlb.walker.walkRequestOrigin_Requested::Data            0                       # Table walker requests started/completed, data/inst
system.cpu.itb.stage2_mmu.stage2_tlb.walker.walkRequestOrigin_Requested::Inst            0                       # Table walker requests started/completed, data/inst
system.cpu.itb.stage2_mmu.stage2_tlb.walker.walkRequestOrigin_Requested::total            0                       # Table walker requests started/completed, data/inst
system.cpu.itb.stage2_mmu.stage2_tlb.walker.walkRequestOrigin_Completed::Data            0                       # Table walker requests started/completed, data/inst
system.cpu.itb.stage2_mmu.stage2_tlb.walker.walkRequestOrigin_Completed::Inst            0                       # Table walker requests started/completed, data/inst
system.cpu.itb.stage2_mmu.stage2_tlb.walker.walkRequestOrigin_Completed::total            0                       # Table walker requests started/completed, data/inst
system.cpu.itb.stage2_mmu.stage2_tlb.walker.walkRequestOrigin::total            0                       # Table walker requests started/completed, data/inst
system.cpu.itb.stage2_mmu.stage2_tlb.walker.walks            0                       # Table walker walks requested
system.cpu.itb.stage2_mmu.stage2_tlb.write_accesses            0                       # DTB write accesses
system.cpu.itb.stage2_mmu.stage2_tlb.write_hits            0                       # DTB write hits
system.cpu.itb.stage2_mmu.stage2_tlb.write_misses            0                       # DTB write misses
system.cpu.itb.walker.walkRequestOrigin_Requested::Data            0                       # Table walker requests started/completed, data/inst
system.cpu.itb.walker.walkRequestOrigin_Requested::Inst            0                       # Table walker requests started/completed, data/inst
system.cpu.itb.walker.walkRequestOrigin_Requested::total            0                       # Table walker requests started/completed, data/inst
system.cpu.itb.walker.walkRequestOrigin_Completed::Data            0                       # Table walker requests started/completed, data/inst
system.cpu.itb.walker.walkRequestOrigin_Completed::Inst            0                       # Table walker requests started/completed, data/inst
system.cpu.itb.walker.walkRequestOrigin_Completed::total            0                       # Table walker requests started/completed, data/inst
system.cpu.itb.walker.walkRequestOrigin::total            0                       # Table walker requests started/completed, data/inst
system.cpu.itb.walker.walks                         0                       # Table walker walks requested
system.cpu.itb.write_accesses                       0                       # DTB write accesses
system.cpu.itb.write_hits                           0                       # DTB write hits
system.cpu.itb.write_misses                         0                       # DTB write misses
system.cpu.numCycles                        162434617                       # number of cpu cycles simulated
system.cpu.numFetchSuspends                         0                       # Number of times Execute suspended instruction fetching
system.cpu.numWorkItemsCompleted                    0                       # number of work items this cpu completed
system.cpu.numWorkItemsStarted                      0                       # number of work items this cpu started
system.cpu.op_class_0::No_OpClass                   0      0.00%      0.00% # Class of committed instruction
system.cpu.op_class_0::IntAlu                46531400     46.44%     46.44% # Class of committed instruction
system.cpu.op_class_0::IntMult                  20720      0.02%     46.46% # Class of committed instruction
system.cpu.op_class_0::IntDiv                       0      0.00%     46.46% # Class of committed instruction
system.cpu.op_class_0::FloatAdd                     0      0.00%     46.46% # Class of committed instruction
system.cpu.op_class_0::FloatCmp                     0      0.00%     46.46% # Class of committed instruction
system.cpu.op_class_0::FloatCvt                     0      0.00%     46.46% # Class of committed instruction
system.cpu.op_class_0::FloatMult                    0      0.00%     46.46% # Class of committed instruction
system.cpu.op_class_0::FloatMultAcc                 0      0.00%     46.46% # Class of committed instruction
system.cpu.op_class_0::FloatDiv                     0      0.00%     46.46% # Class of committed instruction
system.cpu.op_class_0::FloatMisc                    0      0.00%     46.46% # Class of committed instruction
system.cpu.op_class_0::FloatSqrt                    0      0.00%     46.46% # Class of committed instruction
system.cpu.op_class_0::SimdAdd                      0      0.00%     46.46% # Class of committed instruction
system.cpu.op_class_0::SimdAddAcc                   0      0.00%     46.46% # Class of committed instruction
system.cpu.op_class_0::SimdAlu                      0      0.00%     46.46% # Class of committed instruction
system.cpu.op_class_0::SimdCmp                      0      0.00%     46.46% # Class of committed instruction
system.cpu.op_class_0::SimdCvt                      0      0.00%     46.46% # Class of committed instruction
system.cpu.op_class_0::SimdMisc                     0      0.00%     46.46% # Class of committed instruction
system.cpu.op_class_0::SimdMult                     0      0.00%     46.46% # Class of committed instruction
system.cpu.op_class_0::SimdMultAcc                  0      0.00%     46.46% # Class of committed instruction
system.cpu.op_class_0::SimdShift                    0      0.00%     46.46% # Class of committed instruction
system.cpu.op_class_0::SimdShiftAcc                 0      0.00%     46.46% # Class of committed instruction
system.cpu.op_class_0::SimdDiv                      0      0.00%     46.46% # Class of committed instruction
system.cpu.op_class_0::SimdSqrt                     0      0.00%     46.46% # Class of committed instruction
system.cpu.op_class_0::SimdFloatAdd                 0      0.00%     46.46% # Class of committed instruction
system.cpu.op_class_0::SimdFloatAlu                 0      0.00%     46.46% # Class of committed instruction
system.cpu.op_class_0::SimdFloatCmp                 0      0.00%     46.46% # Class of committed instruction
system.cpu.op_class_0::SimdFloatCvt                 0      0.00%     46.46% # Class of committed instruction
system.cpu.op_class_0::SimdFloatDiv                 0      0.00%     46.46% # Class of committed instruction
system.cpu.op_class_0::SimdFloatMisc               18      0.00%     46.46% # Class of committed instruction
system.cpu.op_class_0::SimdFloatMult                0      0.00%     46.46% # Class of committed instruction
system.cpu.op_class_0::SimdFloatMultAcc             0      0.00%     46.46% # Class of committed instruction
system.cpu.op_class_0::SimdFloatSqrt                0      0.00%     46.46% # Class of committed instruction
system.cpu.op_class_0::SimdReduceAdd                0      0.00%     46.46% # Class of committed instruction
system.cpu.op_class_0::SimdReduceAlu                0      0.00%     46.46% # Class of committed instruction
system.cpu.op_class_0::SimdReduceCmp                0      0.00%     46.46% # Class of committed instruction
system.cpu.op_class_0::SimdFloatReduceAdd            0      0.00%     46.46% # Class of committed instruction
system.cpu.op_class_0::SimdFloatReduceCmp            0      0.00%     46.46% # Class of committed instruction
system.cpu.op_class_0::SimdAes                      0      0.00%     46.46% # Class of committed instruction
system.cpu.op_class_0::SimdAesMix                   0      0.00%     46.46% # Class of committed instruction
system.cpu.op_class_0::SimdSha1Hash                 0      0.00%     46.46% # Class of committed instruction
system.cpu.op_class_0::SimdSha1Hash2                0      0.00%     46.46% # Class of committed instruction
system.cpu.op_class_0::SimdSha256Hash               0      0.00%     46.46% # Class of committed instruction
system.cpu.op_class_0::SimdSha256Hash2              0      0.00%     46.46% # Class of committed instruction
system.cpu.op_class_0::SimdShaSigma2                0      0.00%     46.46% # Class of committed instruction
system.cpu.op_class_0::SimdShaSigma3                0      0.00%     46.46% # Class of committed instruction
system.cpu.op_class_0::SimdPredAlu                  0      0.00%     46.46% # Class of committed instruction
system.cpu.op_class_0::MemRead               42693601     42.61%     89.07% # Class of committed instruction
system.cpu.op_class_0::MemWrite              10950624     10.93%    100.00% # Class of committed instruction
system.cpu.op_class_0::FloatMemRead                 0      0.00%    100.00% # Class of committed instruction
system.cpu.op_class_0::FloatMemWrite                0      0.00%    100.00% # Class of committed instruction
system.cpu.op_class_0::IprAccess                    0      0.00%    100.00% # Class of committed instruction
system.cpu.op_class_0::InstPrefetch                 0      0.00%    100.00% # Class of committed instruction
system.cpu.op_class_0::total                100196363                       # Class of committed instruction
system.cpu.tickCycles                       132468207                       # Number of cycles that the object actually ticked
system.cpu.workload.numSyscalls                    84                       # Number of system calls
system.membus.snoop_filter.hit_multi_requests            0                       # Number of requests hitting in the snoop filter with multiple (>1) holders of the requested data.
system.membus.snoop_filter.hit_multi_snoops            0                       # Number of snoops hitting in the snoop filter with multiple (>1) holders of the requested data.
system.membus.snoop_filter.hit_single_requests       113326                       # Number of requests hitting in the snoop filter with a single holder of the requested data.
system.membus.snoop_filter.hit_single_snoops            0                       # Number of snoops hitting in the snoop filter with a single holder of the requested data.
system.membus.snoop_filter.tot_requests        292625                       # Total number of requests made to the snoop filter.
system.membus.snoop_filter.tot_snoops               0                       # Total number of snoops made to the snoop filter.
system.tol2bus.snoop_filter.hit_multi_requests           71                       # Number of requests hitting in the snoop filter with multiple (>1) holders of the requested data.
system.tol2bus.snoop_filter.hit_multi_snoops            0                       # Number of snoops hitting in the snoop filter with multiple (>1) holders of the requested data.
system.tol2bus.snoop_filter.hit_single_requests       550823                       # Number of requests hitting in the snoop filter with a single holder of the requested data.
system.tol2bus.snoop_filter.hit_single_snoops          495                       # Number of snoops hitting in the snoop filter with a single holder of the requested data.
system.tol2bus.snoop_filter.tot_requests      1104268                       # Total number of requests made to the snoop filter.
system.tol2bus.snoop_filter.tot_snoops            495                       # Total number of snoops made to the snoop filter.
system.membus.pwrStateResidencyTicks::UNDEFINED  81217308500                       # Cumulative time (in ticks) in various power states
system.membus.trans_dist::ReadResp              51662                       # Transaction distribution
system.membus.trans_dist::WritebackDirty        68456                       # Transaction distribution
system.membus.trans_dist::CleanEvict            44862                       # Transaction distribution
system.membus.trans_dist::ReadExReq            127645                       # Transaction distribution
system.membus.trans_dist::ReadExResp           127645                       # Transaction distribution
system.membus.trans_dist::ReadSharedReq         51662                       # Transaction distribution
system.membus.pkt_count_system.l2.mem_side::system.mem_ctrls.port       471932                       # Packet count per connected master and slave (bytes)
system.membus.pkt_count::total                 471932                       # Packet count per connected master and slave (bytes)
system.membus.pkt_size_system.l2.mem_side::system.mem_ctrls.port     15856832                       # Cumulative packet size per connected master and slave (bytes)
system.membus.pkt_size::total                15856832                       # Cumulative packet size per connected master and slave (bytes)
system.membus.snoops                                0                       # Total snoops (count)
system.membus.snoopTraffic                          0                       # Total snoop traffic (bytes)
system.membus.snoop_fanout::samples            179307                       # Request fanout histogram
system.membus.snoop_fanout::mean                    0                       # Request fanout histogram
system.membus.snoop_fanout::stdev                   0                       # Request fanout histogram
system.membus.snoop_fanout::underflows              0      0.00%      0.00% # Request fanout histogram
system.membus.snoop_fanout::0                  179307    100.00%    100.00% # Request fanout histogram
system.membus.snoop_fanout::1                       0      0.00%    100.00% # Request fanout histogram
system.membus.snoop_fanout::overflows               0      0.00%    100.00% # Request fanout histogram
system.membus.snoop_fanout::min_value               0                       # Request fanout histogram
system.membus.snoop_fanout::max_value               0                       # Request fanout histogram
system.membus.snoop_fanout::total              179307                       # Request fanout histogram
system.membus.respLayer1.occupancy          964273250                       # Layer occupancy (ticks)
system.membus.respLayer1.utilization              1.2                       # Layer utilization (%)
system.membus.reqLayer0.occupancy           602589500                       # Layer occupancy (ticks)
system.membus.reqLayer0.utilization               0.7                       # Layer utilization (%)
system.tol2bus.pwrStateResidencyTicks::UNDEFINED  81217308500                       # Cumulative time (in ticks) in various power states
system.tol2bus.trans_dist::ReadResp            309734                       # Transaction distribution
system.tol2bus.trans_dist::WritebackDirty       564292                       # Transaction distribution
system.tol2bus.trans_dist::WritebackClean          117                       # Transaction distribution
system.tol2bus.trans_dist::CleanEvict          100225                       # Transaction distribution
system.tol2bus.trans_dist::ReadExReq           243713                       # Transaction distribution
system.tol2bus.trans_dist::ReadExResp          243712                       # Transaction distribution
system.tol2bus.trans_dist::ReadCleanReq           694                       # Transaction distribution
system.tol2bus.trans_dist::ReadSharedReq       309040                       # Transaction distribution
system.tol2bus.pkt_count_system.cpu.icache.mem_side::system.l2.cpu_side         1505                       # Packet count per connected master and slave (bytes)
system.tol2bus.pkt_count_system.cpu.dcache.mem_side::system.l2.cpu_side      1656209                       # Packet count per connected master and slave (bytes)
system.tol2bus.pkt_count::total               1657714                       # Packet count per connected master and slave (bytes)
system.tol2bus.pkt_size_system.cpu.icache.mem_side::system.l2.cpu_side        51904                       # Cumulative packet size per connected master and slave (bytes)
system.tol2bus.pkt_size_system.cpu.dcache.mem_side::system.l2.cpu_side     67109632                       # Cumulative packet size per connected master and slave (bytes)
system.tol2bus.pkt_size::total               67161536                       # Cumulative packet size per connected master and slave (bytes)
system.tol2bus.snoops                          113813                       # Total snoops (count)
system.tol2bus.snoopTraffic                   4381184                       # Total snoop traffic (bytes)
system.tol2bus.snoop_fanout::samples           667260                       # Request fanout histogram
system.tol2bus.snoop_fanout::mean            0.000851                       # Request fanout histogram
system.tol2bus.snoop_fanout::stdev           0.029164                       # Request fanout histogram
system.tol2bus.snoop_fanout::underflows             0      0.00%      0.00% # Request fanout histogram
system.tol2bus.snoop_fanout::0                 666692     99.91%     99.91% # Request fanout histogram
system.tol2bus.snoop_fanout::1                    568      0.09%    100.00% # Request fanout histogram
system.tol2bus.snoop_fanout::2                      0      0.00%    100.00% # Request fanout histogram
system.tol2bus.snoop_fanout::overflows              0      0.00%    100.00% # Request fanout histogram
system.tol2bus.snoop_fanout::min_value              0                       # Request fanout histogram
system.tol2bus.snoop_fanout::max_value              1                       # Request fanout histogram
system.tol2bus.snoop_fanout::total             667260                       # Request fanout histogram
system.tol2bus.reqLayer0.occupancy         1048087000                       # Layer occupancy (ticks)
system.tol2bus.reqLayer0.utilization              1.3                       # Layer utilization (%)
system.tol2bus.respLayer1.occupancy         829129996                       # Layer occupancy (ticks)
system.tol2bus.respLayer1.utilization             1.0                       # Layer utilization (%)
system.tol2bus.respLayer0.occupancy           1041000                       # Layer occupancy (ticks)
system.tol2bus.respLayer0.utilization             0.0                       # Layer utilization (%)
system.voltage_domain.voltage                       1                       # Voltage in Volts
system.clk_domain.clock                          1000                       # Clock period in ticks
system.l2.pwrStateResidencyTicks::UNDEFINED  81217308500                       # Cumulative time (in ticks) in various power states
system.l2.demand_hits::.cpu.inst                   37                       # number of demand (read+write) hits
system.l2.demand_hits::.cpu.data               374099                       # number of demand (read+write) hits
system.l2.demand_hits::total                   374136                       # number of demand (read+write) hits
system.l2.overall_hits::.cpu.inst                  37                       # number of overall hits
system.l2.overall_hits::.cpu.data              374099                       # number of overall hits
system.l2.overall_hits::total                  374136                       # number of overall hits
system.l2.demand_misses::.cpu.inst                657                       # number of demand (read+write) misses
system.l2.demand_misses::.cpu.data             178654                       # number of demand (read+write) misses
system.l2.demand_misses::total                 179311                       # number of demand (read+write) misses
system.l2.overall_misses::.cpu.inst               657                       # number of overall misses
system.l2.overall_misses::.cpu.data            178654                       # number of overall misses
system.l2.overall_misses::total                179311                       # number of overall misses
system.l2.demand_miss_latency::.cpu.inst     49660000                       # number of demand (read+write) miss cycles
system.l2.demand_miss_latency::.cpu.data  14814432000                       # number of demand (read+write) miss cycles
system.l2.demand_miss_latency::total      14864092000                       # number of demand (read+write) miss cycles
system.l2.overall_miss_latency::.cpu.inst     49660000                       # number of overall miss cycles
system.l2.overall_miss_latency::.cpu.data  14814432000                       # number of overall miss cycles
system.l2.overall_miss_latency::total     14864092000                       # number of overall miss cycles
system.l2.demand_accesses::.cpu.inst              694                       # number of demand (read+write) accesses
system.l2.demand_accesses::.cpu.data           552753                       # number of demand (read+write) accesses
system.l2.demand_accesses::total               553447                       # number of demand (read+write) accesses
system.l2.overall_accesses::.cpu.inst             694                       # number of overall (read+write) accesses
system.l2.overall_accesses::.cpu.data          552753                       # number of overall (read+write) accesses
system.l2.overall_accesses::total              553447                       # number of overall (read+write) accesses
system.l2.demand_miss_rate::.cpu.inst        0.946686                       # miss rate for demand accesses
system.l2.demand_miss_rate::.cpu.data        0.323208                       # miss rate for demand accesses
system.l2.demand_miss_rate::total            0.323989                       # miss rate for demand accesses
system.l2.overall_miss_rate::.cpu.inst       0.946686                       # miss rate for overall accesses
system.l2.overall_miss_rate::.cpu.data       0.323208                       # miss rate for overall accesses
system.l2.overall_miss_rate::total           0.323989                       # miss rate for overall accesses
system.l2.demand_avg_miss_latency::.cpu.inst 75585.996956                       # average overall miss latency
system.l2.demand_avg_miss_latency::.cpu.data 82922.475847                       # average overall miss latency
system.l2.demand_avg_miss_latency::total 82895.594805                       # average overall miss latency
system.l2.overall_avg_miss_latency::.cpu.inst 75585.996956                       # average overall miss latency
system.l2.overall_avg_miss_latency::.cpu.data 82922.475847                       # average overall miss latency
system.l2.overall_avg_miss_latency::total 82895.594805                       # average overall miss latency
system.l2.blocked_cycles::no_mshrs                  0                       # number of cycles access was blocked
system.l2.blocked_cycles::no_targets                0                       # number of cycles access was blocked
system.l2.blocked::no_mshrs                         0                       # number of cycles access was blocked
system.l2.blocked::no_targets                       0                       # number of cycles access was blocked
system.l2.avg_blocked_cycles::no_mshrs            nan                       # average number of cycles each access was blocked
system.l2.avg_blocked_cycles::no_targets          nan                       # average number of cycles each access was blocked
system.l2.writebacks::.writebacks               68456                       # number of writebacks
system.l2.writebacks::total                     68456                       # number of writebacks
system.l2.demand_mshr_hits::.cpu.data               4                       # number of demand (read+write) MSHR hits
system.l2.demand_mshr_hits::total                   4                       # number of demand (read+write) MSHR hits
system.l2.overall_mshr_hits::.cpu.data              4                       # number of overall MSHR hits
system.l2.overall_mshr_hits::total                  4                       # number of overall MSHR hits
system.l2.demand_mshr_misses::.cpu.inst           657                       # number of demand (read+write) MSHR misses
system.l2.demand_mshr_misses::.cpu.data        178650                       # number of demand (read+write) MSHR misses
system.l2.demand_mshr_misses::total            179307                       # number of demand (read+write) MSHR misses
system.l2.overall_mshr_misses::.cpu.inst          657                       # number of overall MSHR misses
system.l2.overall_mshr_misses::.cpu.data       178650                       # number of overall MSHR misses
system.l2.overall_mshr_misses::total           179307                       # number of overall MSHR misses
system.l2.demand_mshr_miss_latency::.cpu.inst     43090000                       # number of demand (read+write) MSHR miss cycles
system.l2.demand_mshr_miss_latency::.cpu.data  13027688000                       # number of demand (read+write) MSHR miss cycles
system.l2.demand_mshr_miss_latency::total  13070778000                       # number of demand (read+write) MSHR miss cycles
system.l2.overall_mshr_miss_latency::.cpu.inst     43090000                       # number of overall MSHR miss cycles
system.l2.overall_mshr_miss_latency::.cpu.data  13027688000                       # number of overall MSHR miss cycles
system.l2.overall_mshr_miss_latency::total  13070778000                       # number of overall MSHR miss cycles
system.l2.demand_mshr_miss_rate::.cpu.inst     0.946686                       # mshr miss rate for demand accesses
system.l2.demand_mshr_miss_rate::.cpu.data     0.323200                       # mshr miss rate for demand accesses
system.l2.demand_mshr_miss_rate::total       0.323982                       # mshr miss rate for demand accesses
system.l2.overall_mshr_miss_rate::.cpu.inst     0.946686                       # mshr miss rate for overall accesses
system.l2.overall_mshr_miss_rate::.cpu.data     0.323200                       # mshr miss rate for overall accesses
system.l2.overall_mshr_miss_rate::total      0.323982                       # mshr miss rate for overall accesses
system.l2.demand_avg_mshr_miss_latency::.cpu.inst 65585.996956                       # average overall mshr miss latency
system.l2.demand_avg_mshr_miss_latency::.cpu.data 72922.966695                       # average overall mshr miss latency
system.l2.demand_avg_mshr_miss_latency::total 72896.083254                       # average overall mshr miss latency
system.l2.overall_avg_mshr_miss_latency::.cpu.inst 65585.996956                       # average overall mshr miss latency
system.l2.overall_avg_mshr_miss_latency::.cpu.data 72922.966695                       # average overall mshr miss latency
system.l2.overall_avg_mshr_miss_latency::total 72896.083254                       # average overall mshr miss latency
system.l2.replacements                         113813                       # number of replacements
system.l2.WritebackDirty_hits::.writebacks       495836                       # number of WritebackDirty hits
system.l2.WritebackDirty_hits::total           495836                       # number of WritebackDirty hits
system.l2.WritebackDirty_accesses::.writebacks       495836                       # number of WritebackDirty accesses(hits+misses)
system.l2.WritebackDirty_accesses::total       495836                       # number of WritebackDirty accesses(hits+misses)
system.l2.WritebackClean_hits::.writebacks          111                       # number of WritebackClean hits
system.l2.WritebackClean_hits::total              111                       # number of WritebackClean hits
system.l2.WritebackClean_accesses::.writebacks          111                       # number of WritebackClean accesses(hits+misses)
system.l2.WritebackClean_accesses::total          111                       # number of WritebackClean accesses(hits+misses)
system.l2.ReadExReq_hits::.cpu.data            116068                       # number of ReadExReq hits
system.l2.ReadExReq_hits::total                116068                       # number of ReadExReq hits
system.l2.ReadExReq_misses::.cpu.data          127645                       # number of ReadExReq misses
system.l2.ReadExReq_misses::total              127645                       # number of ReadExReq misses
system.l2.ReadExReq_miss_latency::.cpu.data  10814496500                       # number of ReadExReq miss cycles
system.l2.ReadExReq_miss_latency::total   10814496500                       # number of ReadExReq miss cycles
system.l2.ReadExReq_accesses::.cpu.data        243713                       # number of ReadExReq accesses(hits+misses)
system.l2.ReadExReq_accesses::total            243713                       # number of ReadExReq accesses(hits+misses)
system.l2.ReadExReq_miss_rate::.cpu.data     0.523751                       # miss rate for ReadExReq accesses
system.l2.ReadExReq_miss_rate::total         0.523751                       # miss rate for ReadExReq accesses
system.l2.ReadExReq_avg_miss_latency::.cpu.data 84723.228485                       # average ReadExReq miss latency
system.l2.ReadExReq_avg_miss_latency::total 84723.228485                       # average ReadExReq miss latency
system.l2.ReadExReq_mshr_misses::.cpu.data       127645                       # number of ReadExReq MSHR misses
system.l2.ReadExReq_mshr_misses::total         127645                       # number of ReadExReq MSHR misses
system.l2.ReadExReq_mshr_miss_latency::.cpu.data   9538046500                       # number of ReadExReq MSHR miss cycles
system.l2.ReadExReq_mshr_miss_latency::total   9538046500                       # number of ReadExReq MSHR miss cycles
system.l2.ReadExReq_mshr_miss_rate::.cpu.data     0.523751                       # mshr miss rate for ReadExReq accesses
system.l2.ReadExReq_mshr_miss_rate::total     0.523751                       # mshr miss rate for ReadExReq accesses
system.l2.ReadExReq_avg_mshr_miss_latency::.cpu.data 74723.228485                       # average ReadExReq mshr miss latency
system.l2.ReadExReq_avg_mshr_miss_latency::total 74723.228485                       # average ReadExReq mshr miss latency
system.l2.ReadCleanReq_hits::.cpu.inst             37                       # number of ReadCleanReq hits
system.l2.ReadCleanReq_hits::total                 37                       # number of ReadCleanReq hits
system.l2.ReadCleanReq_misses::.cpu.inst          657                       # number of ReadCleanReq misses
system.l2.ReadCleanReq_misses::total              657                       # number of ReadCleanReq misses
system.l2.ReadCleanReq_miss_latency::.cpu.inst     49660000                       # number of ReadCleanReq miss cycles
system.l2.ReadCleanReq_miss_latency::total     49660000                       # number of ReadCleanReq miss cycles
system.l2.ReadCleanReq_accesses::.cpu.inst          694                       # number of ReadCleanReq accesses(hits+misses)
system.l2.ReadCleanReq_accesses::total            694                       # number of ReadCleanReq accesses(hits+misses)
system.l2.ReadCleanReq_miss_rate::.cpu.inst     0.946686                       # miss rate for ReadCleanReq accesses
system.l2.ReadCleanReq_miss_rate::total      0.946686                       # miss rate for ReadCleanReq accesses
system.l2.ReadCleanReq_avg_miss_latency::.cpu.inst 75585.996956                       # average ReadCleanReq miss latency
system.l2.ReadCleanReq_avg_miss_latency::total 75585.996956                       # average ReadCleanReq miss latency
system.l2.ReadCleanReq_mshr_misses::.cpu.inst          657                       # number of ReadCleanReq MSHR misses
system.l2.ReadCleanReq_mshr_misses::total          657                       # number of ReadCleanReq MSHR misses
system.l2.ReadCleanReq_mshr_miss_latency::.cpu.inst     43090000                       # number of ReadCleanReq MSHR miss cycles
system.l2.ReadCleanReq_mshr_miss_latency::total     43090000                       # number of ReadCleanReq MSHR miss cycles
system.l2.ReadCleanReq_mshr_miss_rate::.cpu.inst     0.946686                       # mshr miss rate for ReadCleanReq accesses
system.l2.ReadCleanReq_mshr_miss_rate::total     0.946686                       # mshr miss rate for ReadCleanReq accesses
system.l2.ReadCleanReq_avg_mshr_miss_latency::.cpu.inst 65585.996956                       # average ReadCleanReq mshr miss latency
system.l2.ReadCleanReq_avg_mshr_miss_latency::total 65585.996956                       # average ReadCleanReq mshr miss latency
system.l2.ReadSharedReq_hits::.cpu.data        258031                       # number of ReadSharedReq hits
system.l2.ReadSharedReq_hits::total            258031                       # number of ReadSharedReq hits
system.l2.ReadSharedReq_misses::.cpu.data        51009                       # number of ReadSharedReq misses
system.l2.ReadSharedReq_misses::total           51009                       # number of ReadSharedReq misses
system.l2.ReadSharedReq_miss_latency::.cpu.data   3999935500                       # number of ReadSharedReq miss cycles
system.l2.ReadSharedReq_miss_latency::total   3999935500                       # number of ReadSharedReq miss cycles
system.l2.ReadSharedReq_accesses::.cpu.data       309040                       # number of ReadSharedReq accesses(hits+misses)
system.l2.ReadSharedReq_accesses::total        309040                       # number of ReadSharedReq accesses(hits+misses)
system.l2.ReadSharedReq_miss_rate::.cpu.data     0.165056                       # miss rate for ReadSharedReq accesses
system.l2.ReadSharedReq_miss_rate::total     0.165056                       # miss rate for ReadSharedReq accesses
system.l2.ReadSharedReq_avg_miss_latency::.cpu.data 78416.269678                       # average ReadSharedReq miss latency
system.l2.ReadSharedReq_avg_miss_latency::total 78416.269678                       # average ReadSharedReq miss latency
system.l2.ReadSharedReq_mshr_hits::.cpu.data            4                       # number of ReadSharedReq MSHR hits
system.l2.ReadSharedReq_mshr_hits::total            4                       # number of ReadSharedReq MSHR hits
system.l2.ReadSharedReq_mshr_misses::.cpu.data        51005                       # number of ReadSharedReq MSHR misses
system.l2.ReadSharedReq_mshr_misses::total        51005                       # number of ReadSharedReq MSHR misses
system.l2.ReadSharedReq_mshr_miss_latency::.cpu.data   3489641500                       # number of ReadSharedReq MSHR miss cycles
system.l2.ReadSharedReq_mshr_miss_latency::total   3489641500                       # number of ReadSharedReq MSHR miss cycles
system.l2.ReadSharedReq_mshr_miss_rate::.cpu.data     0.165043                       # mshr miss rate for ReadSharedReq accesses
system.l2.ReadSharedReq_mshr_miss_rate::total     0.165043                       # mshr miss rate for ReadSharedReq accesses
system.l2.ReadSharedReq_avg_mshr_miss_latency::.cpu.data 68417.635526                       # average ReadSharedReq mshr miss latency
system.l2.ReadSharedReq_avg_mshr_miss_latency::total 68417.635526                       # average ReadSharedReq mshr miss latency
system.l2.tags.pwrStateResidencyTicks::UNDEFINED  81217308500                       # Cumulative time (in ticks) in various power states
system.l2.tags.tagsinuse                 63152.370124                       # Cycle average of tags in use
system.l2.tags.total_refs                     1104193                       # Total number of references to valid blocks.
system.l2.tags.sampled_refs                    179349                       # Sample count of references to valid blocks.
system.l2.tags.avg_refs                      6.156672                       # Average number of references to valid blocks.
system.l2.tags.warmup_cycle                     77000                       # Cycle when the warmup percentage was hit.
system.l2.tags.occ_blocks::.writebacks      22.113551                       # Average occupied blocks per requestor
system.l2.tags.occ_blocks::.cpu.inst       113.085392                       # Average occupied blocks per requestor
system.l2.tags.occ_blocks::.cpu.data     63017.171180                       # Average occupied blocks per requestor
system.l2.tags.occ_percent::.writebacks      0.000337                       # Average percentage of cache occupancy
system.l2.tags.occ_percent::.cpu.inst        0.001726                       # Average percentage of cache occupancy
system.l2.tags.occ_percent::.cpu.data        0.961566                       # Average percentage of cache occupancy
system.l2.tags.occ_percent::total            0.963629                       # Average percentage of cache occupancy
system.l2.tags.occ_task_id_blocks::1024         65536                       # Occupied blocks per task id
system.l2.tags.age_task_id_blocks_1024::2            3                       # Occupied blocks per task id
system.l2.tags.age_task_id_blocks_1024::3         5592                       # Occupied blocks per task id
system.l2.tags.age_task_id_blocks_1024::4        59941                       # Occupied blocks per task id
system.l2.tags.occ_task_id_percent::1024            1                       # Percentage of cache occupancy per task id
system.l2.tags.tag_accesses                   9012925                       # Number of tag accesses
system.l2.tags.data_accesses                  9012925                       # Number of data accesses
system.cpu_voltage_domain.voltage                   1                       # Voltage in Volts
system.mem_ctrls.pwrStateResidencyTicks::UNDEFINED  81217308500                       # Cumulative time (in ticks) in various power states
system.mem_ctrls.bytes_read::.cpu.inst          42048                       # Number of bytes read from this memory
system.mem_ctrls.bytes_read::.cpu.data       11433600                       # Number of bytes read from this memory
system.mem_ctrls.bytes_read::total           11475648                       # Number of bytes read from this memory
system.mem_ctrls.bytes_inst_read::.cpu.inst        42048                       # Number of instructions bytes read from this memory
system.mem_ctrls.bytes_inst_read::total         42048                       # Number of instructions bytes read from this memory
system.mem_ctrls.bytes_written::.writebacks      4381184                       # Number of bytes written to this memory
system.mem_ctrls.bytes_written::total         4381184                       # Number of bytes written to this memory
system.mem_ctrls.num_reads::.cpu.inst             657                       # Number of read requests responded to by this memory
system.mem_ctrls.num_reads::.cpu.data          178650                       # Number of read requests responded to by this memory
system.mem_ctrls.num_reads::total              179307                       # Number of read requests responded to by this memory
system.mem_ctrls.num_writes::.writebacks        68456                       # Number of write requests responded to by this memory
system.mem_ctrls.num_writes::total              68456                       # Number of write requests responded to by this memory
system.mem_ctrls.bw_read::.cpu.inst            517722                       # Total read bandwidth from this memory (bytes/s)
system.mem_ctrls.bw_read::.cpu.data         140777874                       # Total read bandwidth from this memory (bytes/s)
system.mem_ctrls.bw_read::total             141295596                       # Total read bandwidth from this memory (bytes/s)
system.mem_ctrls.bw_inst_read::.cpu.inst       517722                       # Instruction read bandwidth from this memory (bytes/s)
system.mem_ctrls.bw_inst_read::total           517722                       # Instruction read bandwidth from this memory (bytes/s)
system.mem_ctrls.bw_write::.writebacks       53943969                       # Write bandwidth from this memory (bytes/s)
system.mem_ctrls.bw_write::total             53943969                       # Write bandwidth from this memory (bytes/s)
system.mem_ctrls.bw_total::.writebacks       53943969                       # Total bandwidth to/from this memory (bytes/s)
system.mem_ctrls.bw_total::.cpu.inst           517722                       # Total bandwidth to/from this memory (bytes/s)
system.mem_ctrls.bw_total::.cpu.data        140777874                       # Total bandwidth to/from this memory (bytes/s)
system.mem_ctrls.bw_total::total            195239565                       # Total bandwidth to/from this memory (bytes/s)
system.mem_ctrls.avgPriority_.writebacks::samples     68456.00                       # Average QoS priority value for accepted requests
system.mem_ctrls.avgPriority_.cpu.inst::samples       657.00                       # Average QoS priority value for accepted requests
system.mem_ctrls.avgPriority_.cpu.data::samples    178644.00                       # Average QoS priority value for accepted requests
system.mem_ctrls.priorityMinLatency      0.000000018750                       # per QoS priority minimum request to response latency (s)
system.mem_ctrls.priorityMaxLatency      0.004203550500                       # per QoS priority maximum request to response latency (s)
system.mem_ctrls.numReadWriteTurnArounds         4123                       # Number of turnarounds from READ to WRITE
system.mem_ctrls.numWriteReadTurnArounds         4123                       # Number of turnarounds from WRITE to READ
system.mem_ctrls.numStayReadState              440192                       # Number of times bus staying in READ state
system.mem_ctrls.numStayWriteState              64449                       # Number of times bus staying in WRITE state
system.mem_ctrls.readReqs                      179307                       # Number of read requests accepted
system.mem_ctrls.writeReqs                      68456                       # Number of write requests accepted
system.mem_ctrls.readBursts                    179307                       # Number of DRAM read bursts, including those serviced by the write queue
system.mem_ctrls.writeBursts                    68456                       # Number of DRAM write bursts, including those merged in the write queue
system.mem_ctrls.servicedByWrQ                      6                       # Number of DRAM read bursts serviced by the write queue
system.mem_ctrls.mergedWrBursts                     0                       # Number of DRAM write bursts merged with an existing one
system.mem_ctrls.neitherReadNorWriteReqs            0                       # Number of requests that are neither read nor write
system.mem_ctrls.perBankRdBursts::0             11314                       # Per bank write bursts
system.mem_ctrls.perBankRdBursts::1             11364                       # Per bank write bursts
system.mem_ctrls.perBankRdBursts::2             11403                       # Per bank write bursts
system.mem_ctrls.perBankRdBursts::3             11182                       # Per bank write bursts
system.mem_ctrls.perBankRdBursts::4             11166                       # Per bank write bursts
system.mem_ctrls.perBankRdBursts::5             11058                       # Per bank write bursts
system.mem_ctrls.perBankRdBursts::6             10998                       # Per bank write bursts
system.mem_ctrls.perBankRdBursts::7             11331                       # Per bank write bursts
system.mem_ctrls.perBankRdBursts::8             11277                       # Per bank write bursts
system.mem_ctrls.perBankRdBursts::9             11192                       # Per bank write bursts
system.mem_ctrls.perBankRdBursts::10            11235                       # Per bank write bursts
system.mem_ctrls.perBankRdBursts::11            11168                       # Per bank write bursts
system.mem_ctrls.perBankRdBursts::12            11245                       # Per bank write bursts
system.mem_ctrls.perBankRdBursts::13            11137                       # Per bank write bursts
system.mem_ctrls.perBankRdBursts::14            11067                       # Per bank write bursts
system.mem_ctrls.perBankRdBursts::15            11164                       # Per bank write bursts
system.mem_ctrls.perBankWrBursts::0              4352                       # Per bank write bursts
system.mem_ctrls.perBankWrBursts::1              4355                       # Per bank write bursts
system.mem_ctrls.perBankWrBursts::2              4391                       # Per bank write bursts
system.mem_ctrls.perBankWrBursts::3              4368                       # Per bank write bursts
system.mem_ctrls.perBankWrBursts::4              4290                       # Per bank write bursts
system.mem_ctrls.perBankWrBursts::5              4255                       # Per bank write bursts
system.mem_ctrls.perBankWrBursts::6              4246                       # Per bank write bursts
system.mem_ctrls.perBankWrBursts::7              4350                       # Per bank write bursts
system.mem_ctrls.perBankWrBursts::8              4262                       # Per bank write bursts
system.mem_ctrls.perBankWrBursts::9              4223                       # Per bank write bursts
system.mem_ctrls.perBankWrBursts::10             4222                       # Per bank write bursts
system.mem_ctrls.perBankWrBursts::11             4224                       # Per bank write bursts
system.mem_ctrls.perBankWrBursts::12             4189                       # Per bank write bursts
system.mem_ctrls.perBankWrBursts::13             4222                       # Per bank write bursts
system.mem_ctrls.perBankWrBursts::14             4223                       # Per bank write bursts
system.mem_ctrls.perBankWrBursts::15             4266                       # Per bank write bursts
system.mem_ctrls.avgRdQLen                       1.08                       # Average read queue length when enqueuing
system.mem_ctrls.avgWrQLen                      24.88                       # Average write queue length when enqueuing
system.mem_ctrls.totQLat                   2310455750                       # Total ticks spent queuing
system.mem_ctrls.totBusLat                  896505000                       # Total ticks spent in databus transfers
system.mem_ctrls.totMemAccLat              5672349500                       # Total ticks spent from burst creation until serviced by the DRAM
system.mem_ctrls.avgQLat                     12885.91                       # Average queueing delay per DRAM burst
system.mem_ctrls.avgBusLat                    5000.00                       # Average bus latency per DRAM burst
system.mem_ctrls.avgMemAccLat                31635.91                       # Average memory access latency per DRAM burst
system.mem_ctrls.numRdRetry                         0                       # Number of times read queue was full causing retry
system.mem_ctrls.numWrRetry                         0                       # Number of times write queue was full causing retry
system.mem_ctrls.readRowHits                   130173                       # Number of row buffer hits during reads
system.mem_ctrls.writeRowHits                   50797                       # Number of row buffer hits during writes
system.mem_ctrls.readRowHitRate                 72.60                       # Row buffer hit rate for reads
system.mem_ctrls.writeRowHitRate                74.20                       # Row buffer hit rate for writes
system.mem_ctrls.readPktSize::0                     0                       # Read request sizes (log2)
system.mem_ctrls.readPktSize::1                     0                       # Read request sizes (log2)
system.mem_ctrls.readPktSize::2                     0                       # Read request sizes (log2)
system.mem_ctrls.readPktSize::3                     0                       # Read request sizes (log2)
system.mem_ctrls.readPktSize::4                     0                       # Read request sizes (log2)
system.mem_ctrls.readPktSize::5                     0                       # Read request sizes (log2)
system.mem_ctrls.readPktSize::6                179307                       # Read request sizes (log2)
system.mem_ctrls.writePktSize::0                    0                       # Write request sizes (log2)
system.mem_ctrls.writePktSize::1                    0                       # Write request sizes (log2)
system.mem_ctrls.writePktSize::2                    0                       # Write request sizes (log2)
system.mem_ctrls.writePktSize::3                    0                       # Write request sizes (log2)
system.mem_ctrls.writePktSize::4                    0                       # Write request sizes (log2)
system.mem_ctrls.writePktSize::5                    0                       # Write request sizes (log2)
system.mem_ctrls.writePktSize::6                68456                       # Write request sizes (log2)
system.mem_ctrls.rdQLenPdf::0                  120453                       # What read queue length does an incoming req see
system.mem_ctrls.rdQLenPdf::1                   56479                       # What read queue length does an incoming req see
system.mem_ctrls.rdQLenPdf::2                    2074                       # What read queue length does an incoming req see
system.mem_ctrls.rdQLenPdf::3                     294                       # What read queue length does an incoming req see
system.mem_ctrls.rdQLenPdf::4                       1                       # What read queue length does an incoming req see
system.mem_ctrls.rdQLenPdf::5                       0                       # What read queue length does an incoming req see
system.mem_ctrls.rdQLenPdf::6                       0                       # What read queue length does an incoming req see
system.mem_ctrls.rdQLenPdf::7                       0                       # What read queue length does an incoming req see
system.mem_ctrls.rdQLenPdf::8                       0                       # What read queue length does an incoming req see
system.mem_ctrls.rdQLenPdf::9                       0                       # What read queue length does an incoming req see
system.mem_ctrls.rdQLenPdf::10                      0                       # What read queue length does an incoming req see
system.mem_ctrls.rdQLenPdf::11                      0                       # What read queue length does an incoming req see
system.mem_ctrls.rdQLenPdf::12                      0                       # What read queue length does an incoming req see
system.mem_ctrls.rdQLenPdf::13                      0                       # What read queue length does an incoming req see
system.mem_ctrls.rdQLenPdf::14                      0                       # What read queue length does an incoming req see
system.mem_ctrls.rdQLenPdf::15                      0                       # What read queue length does an incoming req see
system.mem_ctrls.rdQLenPdf::16                      0                       # What read queue length does an incoming req see
system.mem_ctrls.rdQLenPdf::17                      0                       # What read queue length does an incoming req see
system.mem_ctrls.rdQLenPdf::18                      0                       # What read queue length does an incoming req see
system.mem_ctrls.rdQLenPdf::19                      0                       # What read queue length does an incoming req see
system.mem_ctrls.rdQLenPdf::20                      0                       # What read queue length does an incoming req see
system.mem_ctrls.rdQLenPdf::21                      0                       # What read queue length does an incoming req see
system.mem_ctrls.rdQLenPdf::22                      0                       # What read queue length does an incoming req see
system.mem_ctrls.rdQLenPdf::23                      0                       # What read queue length does an incoming req see
system.mem_ctrls.rdQLenPdf::24                      0                       # What read queue length does an incoming req see
system.mem_ctrls.rdQLenPdf::25                      0                       # What read queue length does an incoming req see
system.mem_ctrls.rdQLenPdf::26                      0                       # What read queue length does an incoming req see
system.mem_ctrls.rdQLenPdf::27                      0                       # What read queue length does an incoming req see
system.mem_ctrls.rdQLenPdf::28                      0                       # What read queue length does an incoming req see
system.mem_ctrls.rdQLenPdf::29                      0                       # What read queue length does an incoming req see
system.mem_ctrls.rdQLenPdf::30                      0                       # What read queue length does an incoming req see
system.mem_ctrls.rdQLenPdf::31                      0                       # What read queue length does an incoming req see
system.mem_ctrls.wrQLenPdf::0                       1                       # What write queue length does an incoming req see
system.mem_ctrls.wrQLenPdf::1                       1                       # What write queue length does an incoming req see
system.mem_ctrls.wrQLenPdf::2                       1                       # What write queue length does an incoming req see
system.mem_ctrls.wrQLenPdf::3                       1                       # What write queue length does an incoming req see
system.mem_ctrls.wrQLenPdf::4                       1                       # What write queue length does an incoming req see
system.mem_ctrls.wrQLenPdf::5                       1                       # What write queue length does an incoming req see
system.mem_ctrls.wrQLenPdf::6                       1                       # What write queue length does an incoming req see
system.mem_ctrls.wrQLenPdf::7                       1                       # What write queue length does an incoming req see
system.mem_ctrls.wrQLenPdf::8                       1                       # What write queue length does an incoming req see
system.mem_ctrls.wrQLenPdf::9                       1                       # What write queue length does an incoming req see
system.mem_ctrls.wrQLenPdf::10                      1                       # What write queue length does an incoming req see
system.mem_ctrls.wrQLenPdf::11                      1                       # What write queue length does an incoming req see
system.mem_ctrls.wrQLenPdf::12                      1                       # What write queue length does an incoming req see
system.mem_ctrls.wrQLenPdf::13                      1                       # What write queue length does an incoming req see
system.mem_ctrls.wrQLenPdf::14                      1                       # What write queue length does an incoming req see
system.mem_ctrls.wrQLenPdf::15                   1207                       # What write queue length does an incoming req see
system.mem_ctrls.wrQLenPdf::16                   1215                       # What write queue length does an incoming req see
system.mem_ctrls.wrQLenPdf::17                   2869                       # What write queue length does an incoming req see
system.mem_ctrls.wrQLenPdf::18                   4016                       # What write queue length does an incoming req see
system.mem_ctrls.wrQLenPdf::19                   4068                       # What write queue length does an incoming req see
system.mem_ctrls.wrQLenPdf::20                   4160                       # What write queue length does an incoming req see
system.mem_ctrls.wrQLenPdf::21                   4143                       # What write queue length does an incoming req see
system.mem_ctrls.wrQLenPdf::22                   4151                       # What write queue length does an incoming req see
system.mem_ctrls.wrQLenPdf::23                   4176                       # What write queue length does an incoming req see
system.mem_ctrls.wrQLenPdf::24                   4199                       # What write queue length does an incoming req see
system.mem_ctrls.wrQLenPdf::25                   4590                       # What write queue length does an incoming req see
system.mem_ctrls.wrQLenPdf::26                   4241                       # What write queue length does an incoming req see
system.mem_ctrls.wrQLenPdf::27                   4155                       # What write queue length does an incoming req see
system.mem_ctrls.wrQLenPdf::28                   4542                       # What write queue length does an incoming req see
system.mem_ctrls.wrQLenPdf::29                   4203                       # What write queue length does an incoming req see
system.mem_ctrls.wrQLenPdf::30                   4163                       # What write queue length does an incoming req see
system.mem_ctrls.wrQLenPdf::31                   4191                       # What write queue length does an incoming req see
system.mem_ctrls.wrQLenPdf::32                   4145                       # What write queue length does an incoming req see
system.mem_ctrls.wrQLenPdf::33                      5                       # What write queue length does an incoming req see
system.mem_ctrls.wrQLenPdf::34                      1                       # What write queue length does an incoming req see
system.mem_ctrls.wrQLenPdf::35                      1                       # What write queue length does an incoming req see
system.mem_ctrls.wrQLenPdf::36                      0                       # What write queue length does an incoming req see
system.mem_ctrls.wrQLenPdf::37                      0                       # What write queue length does an incoming req see
system.mem_ctrls.wrQLenPdf::38                      0                       # What write queue length does an incoming req see
system.mem_ctrls.wrQLenPdf::39                      0                       # What write queue length does an incoming req see
system.mem_ctrls.wrQLenPdf::40                      0                       # What write queue length does an incoming req see
system.mem_ctrls.wrQLenPdf::41                      0                       # What write queue length does an incoming req see
system.mem_ctrls.wrQLenPdf::42                      0                       # What write queue length does an incoming req see
system.mem_ctrls.wrQLenPdf::43                      0                       # What write queue length does an incoming req see
system.mem_ctrls.wrQLenPdf::44                      0                       # What write queue length does an incoming req see
system.mem_ctrls.wrQLenPdf::45                      0                       # What write queue length does an incoming req see
system.mem_ctrls.wrQLenPdf::46                      0                       # What write queue length does an incoming req see
system.mem_ctrls.wrQLenPdf::47                      0                       # What write queue length does an incoming req see
system.mem_ctrls.wrQLenPdf::48                      0                       # What write queue length does an incoming req see
system.mem_ctrls.wrQLenPdf::49                      0                       # What write queue length does an incoming req see
system.mem_ctrls.wrQLenPdf::50                      0                       # What write queue length does an incoming req see
system.mem_ctrls.wrQLenPdf::51                      0                       # What write queue length does an incoming req see
system.mem_ctrls.wrQLenPdf::52                      0                       # What write queue length does an incoming req see
system.mem_ctrls.wrQLenPdf::53                      0                       # What write queue length does an incoming req see
system.mem_ctrls.wrQLenPdf::54                      0                       # What write queue length does an incoming req see
system.mem_ctrls.wrQLenPdf::55                      0                       # What write queue length does an incoming req see
system.mem_ctrls.wrQLenPdf::56                      0                       # What write queue length does an incoming req see
system.mem_ctrls.wrQLenPdf::57                      0                       # What write queue length does an incoming req see
system.mem_ctrls.wrQLenPdf::58                      0                       # What write queue length does an incoming req see
system.mem_ctrls.wrQLenPdf::59                      0                       # What write queue length does an incoming req see
system.mem_ctrls.wrQLenPdf::60                      0                       # What write queue length does an incoming req see
system.mem_ctrls.wrQLenPdf::61                      0                       # What write queue length does an incoming req see
system.mem_ctrls.wrQLenPdf::62                      0                       # What write queue length does an incoming req see
system.mem_ctrls.wrQLenPdf::63                      0                       # What write queue length does an incoming req see
system.mem_ctrls.bytesPerActivate::samples        66769                       # Bytes accessed per row activation
system.mem_ctrls.bytesPerActivate::mean    237.464931                       # Bytes accessed per row activation
system.mem_ctrls.bytesPerActivate::gmean   131.819825                       # Bytes accessed per row activation
system.mem_ctrls.bytesPerActivate::stdev   291.756296                       # Bytes accessed per row activation
system.mem_ctrls.bytesPerActivate::0-127        39751     59.54%     59.54% # Bytes accessed per row activation
system.mem_ctrls.bytesPerActivate::128-255         8351     12.51%     72.04% # Bytes accessed per row activation
system.mem_ctrls.bytesPerActivate::256-383         1677      2.51%     74.55% # Bytes accessed per row activation
system.mem_ctrls.bytesPerActivate::384-511         1241      1.86%     76.41% # Bytes accessed per row activation
system.mem_ctrls.bytesPerActivate::512-639         8588     12.86%     89.27% # Bytes accessed per row activation
system.mem_ctrls.bytesPerActivate::640-767         1290      1.93%     91.21% # Bytes accessed per row activation
system.mem_ctrls.bytesPerActivate::768-895          366      0.55%     91.76% # Bytes accessed per row activation
system.mem_ctrls.bytesPerActivate::896-1023          356      0.53%     92.29% # Bytes accessed per row activation
system.mem_ctrls.bytesPerActivate::1024-1151         5149      7.71%    100.00% # Bytes accessed per row activation
system.mem_ctrls.bytesPerActivate::total        66769                       # Bytes accessed per row activation
system.mem_ctrls.rdPerTurnAround::samples         4123                       # Reads before turning the bus around for writes
system.mem_ctrls.rdPerTurnAround::mean      43.487752                       # Reads before turning the bus around for writes
system.mem_ctrls.rdPerTurnAround::gmean     27.768890                       # Reads before turning the bus around for writes
system.mem_ctrls.rdPerTurnAround::stdev     92.743920                       # Reads before turning the bus around for writes
system.mem_ctrls.rdPerTurnAround::0-255          3862     93.67%     93.67% # Reads before turning the bus around for writes
system.mem_ctrls.rdPerTurnAround::256-511          260      6.31%     99.98% # Reads before turning the bus around for writes
system.mem_ctrls.rdPerTurnAround::4352-4607            1      0.02%    100.00% # Reads before turning the bus around for writes
system.mem_ctrls.rdPerTurnAround::total          4123                       # Reads before turning the bus around for writes
system.mem_ctrls.wrPerTurnAround::samples         4123                       # Writes before turning the bus around for reads
system.mem_ctrls.wrPerTurnAround::mean      16.599078                       # Writes before turning the bus around for reads
system.mem_ctrls.wrPerTurnAround::gmean     16.573645                       # Writes before turning the bus around for reads
system.mem_ctrls.wrPerTurnAround::stdev      0.935353                       # Writes before turning the bus around for reads
system.mem_ctrls.wrPerTurnAround::16             2906     70.48%     70.48% # Writes before turning the bus around for reads
system.mem_ctrls.wrPerTurnAround::17               10      0.24%     70.73% # Writes before turning the bus around for reads
system.mem_ctrls.wrPerTurnAround::18             1168     28.33%     99.05% # Writes before turning the bus around for reads
[...]
system.cpu.icache.ReadReq_mshr_misses::.cpu.inst          694                       # number of ReadReq MSHR misses
system.cpu.icache.ReadReq_mshr_misses::total          694                       # number of ReadReq MSHR misses
system.cpu.icache.ReadReq_mshr_miss_latency::.cpu.inst     51110000                       # number of ReadReq MSHR miss cycles
system.cpu.icache.ReadReq_mshr_miss_latency::total     51110000                       # number of ReadReq MSHR miss cycles
system.cpu.icache.ReadReq_mshr_miss_rate::.cpu.inst     0.000072                       # mshr miss rate for ReadReq accesses
system.cpu.icache.ReadReq_mshr_miss_rate::total     0.000072                       # mshr miss rate for ReadReq accesses
system.cpu.icache.ReadReq_avg_mshr_miss_latency::.cpu.inst 73645.533141                       # average ReadReq mshr miss latency
system.cpu.icache.ReadReq_avg_mshr_miss_latency::total 73645.533141                       # average ReadReq mshr miss latency
system.cpu.icache.tags.pwrStateResidencyTicks::UNDEFINED  81217308500                       # Cumulative time (in ticks) in various power states
system.cpu.icache.tags.tagsinuse           461.671753                       # Cycle average of tags in use
system.cpu.icache.tags.total_refs             9663327                       # Total number of references to valid blocks.
system.cpu.icache.tags.sampled_refs               694                       # Sample count of references to valid blocks.
system.cpu.icache.tags.avg_refs          13924.102305                       # Average number of references to valid blocks.
system.cpu.icache.tags.warmup_cycle             87500                       # Cycle when the warmup percentage was hit.
system.cpu.icache.tags.occ_blocks::.cpu.inst   461.671753                       # Average occupied blocks per requestor
system.cpu.icache.tags.occ_percent::.cpu.inst     0.450851                       # Average percentage of cache occupancy
system.cpu.icache.tags.occ_percent::total     0.450851                       # Average percentage of cache occupancy
system.cpu.icache.tags.occ_task_id_blocks::1024          577                       # Occupied blocks per task id
system.cpu.icache.tags.age_task_id_blocks_1024::3          106                       # Occupied blocks per task id
system.cpu.icache.tags.age_task_id_blocks_1024::4          471                       # Occupied blocks per task id
system.cpu.icache.tags.occ_task_id_percent::1024     0.563477                       # Percentage of cache occupancy per task id
system.cpu.icache.tags.tag_accesses          19327348                       # Number of tag accesses
system.cpu.icache.tags.data_accesses         19327348                       # Number of data accesses
system.cpu.dtb.walker.pwrStateResidencyTicks::UNDEFINED  81217308500                       # Cumulative time (in ticks) in various power states
system.cpu.dtb.stage2_mmu.stage2_tlb.walker.pwrStateResidencyTicks::UNDEFINED  81217308500                       # Cumulative time (in ticks) in various power states
system.cpu.dcache.pwrStateResidencyTicks::UNDEFINED  81217308500                       # Cumulative time (in ticks) in various power states
system.cpu.dcache.demand_hits::.cpu.data     51469572                       # number of demand (read+write) hits
system.cpu.dcache.demand_hits::total         51469572                       # number of demand (read+write) hits
system.cpu.dcache.overall_hits::.cpu.data     51470080                       # number of overall hits
system.cpu.dcache.overall_hits::total        51470080                       # number of overall hits
system.cpu.dcache.demand_misses::.cpu.data       603773                       # number of demand (read+write) misses
system.cpu.dcache.demand_misses::total         603773                       # number of demand (read+write) misses
system.cpu.dcache.overall_misses::.cpu.data       611684                       # number of overall misses
system.cpu.dcache.overall_misses::total        611684                       # number of overall misses
system.cpu.dcache.demand_miss_latency::.cpu.data  21041708000                       # number of demand (read+write) miss cycles
system.cpu.dcache.demand_miss_latency::total  21041708000                       # number of demand (read+write) miss cycles
system.cpu.dcache.overall_miss_latency::.cpu.data  21041708000                       # number of overall miss cycles
system.cpu.dcache.overall_miss_latency::total  21041708000                       # number of overall miss cycles
system.cpu.dcache.demand_accesses::.cpu.data     52073345                       # number of demand (read+write) accesses
system.cpu.dcache.demand_accesses::total     52073345                       # number of demand (read+write) accesses
system.cpu.dcache.overall_accesses::.cpu.data     52081764                       # number of overall (read+write) accesses
system.cpu.dcache.overall_accesses::total     52081764                       # number of overall (read+write) accesses
system.cpu.dcache.demand_miss_rate::.cpu.data     0.011595                       # miss rate for demand accesses
system.cpu.dcache.demand_miss_rate::total     0.011595                       # miss rate for demand accesses
system.cpu.dcache.overall_miss_rate::.cpu.data     0.011745                       # miss rate for overall accesses
system.cpu.dcache.overall_miss_rate::total     0.011745                       # miss rate for overall accesses
system.cpu.dcache.demand_avg_miss_latency::.cpu.data 34850.362636                       # average overall miss latency
system.cpu.dcache.demand_avg_miss_latency::total 34850.362636                       # average overall miss latency
system.cpu.dcache.overall_avg_miss_latency::.cpu.data 34399.637721                       # average overall miss latency
system.cpu.dcache.overall_avg_miss_latency::total 34399.637721                       # average overall miss latency
system.cpu.dcache.blocked_cycles::no_mshrs       181950                       # number of cycles access was blocked
system.cpu.dcache.blocked_cycles::no_targets            0                       # number of cycles access was blocked
system.cpu.dcache.blocked::no_mshrs              2369                       # number of cycles access was blocked
system.cpu.dcache.blocked::no_targets               0                       # number of cycles access was blocked
system.cpu.dcache.avg_blocked_cycles::no_mshrs    76.804559                       # average number of cycles each access was blocked
system.cpu.dcache.avg_blocked_cycles::no_targets          nan                       # average number of cycles each access was blocked
system.cpu.dcache.writebacks::.writebacks       495836                       # number of writebacks
system.cpu.dcache.writebacks::total            495836                       # number of writebacks
system.cpu.dcache.demand_mshr_hits::.cpu.data        58926                       # number of demand (read+write) MSHR hits
system.cpu.dcache.demand_mshr_hits::total        58926                       # number of demand (read+write) MSHR hits
system.cpu.dcache.overall_mshr_hits::.cpu.data        58926                       # number of overall MSHR hits
system.cpu.dcache.overall_mshr_hits::total        58926                       # number of overall MSHR hits
system.cpu.dcache.demand_mshr_misses::.cpu.data       544847                       # number of demand (read+write) MSHR misses
system.cpu.dcache.demand_mshr_misses::total       544847                       # number of demand (read+write) MSHR misses
system.cpu.dcache.overall_mshr_misses::.cpu.data       552753                       # number of overall MSHR misses
system.cpu.dcache.overall_mshr_misses::total       552753                       # number of overall MSHR misses
system.cpu.dcache.demand_mshr_miss_latency::.cpu.data  18929431000                       # number of demand (read+write) MSHR miss cycles
system.cpu.dcache.demand_mshr_miss_latency::total  18929431000                       # number of demand (read+write) MSHR miss cycles
system.cpu.dcache.overall_mshr_miss_latency::.cpu.data  19573991999                       # number of overall MSHR miss cycles
system.cpu.dcache.overall_mshr_miss_latency::total  19573991999                       # number of overall MSHR miss cycles
system.cpu.dcache.demand_mshr_miss_rate::.cpu.data     0.010463                       # mshr miss rate for demand accesses
system.cpu.dcache.demand_mshr_miss_rate::total     0.010463                       # mshr miss rate for demand accesses
system.cpu.dcache.overall_mshr_miss_rate::.cpu.data     0.010613                       # mshr miss rate for overall accesses
system.cpu.dcache.overall_mshr_miss_rate::total     0.010613                       # mshr miss rate for overall accesses
system.cpu.dcache.demand_avg_mshr_miss_latency::.cpu.data 34742.654360                       # average overall mshr miss latency
system.cpu.dcache.demand_avg_mshr_miss_latency::total 34742.654360                       # average overall mshr miss latency
system.cpu.dcache.overall_avg_mshr_miss_latency::.cpu.data 35411.824086                       # average overall mshr miss latency
system.cpu.dcache.overall_avg_mshr_miss_latency::total 35411.824086                       # average overall mshr miss latency
system.cpu.dcache.replacements                 550704                       # number of replacements
system.cpu.dcache.ReadReq_hits::.cpu.data     40821371                       # number of ReadReq hits
system.cpu.dcache.ReadReq_hits::total        40821371                       # number of ReadReq hits
system.cpu.dcache.ReadReq_misses::.cpu.data       301873                       # number of ReadReq misses
system.cpu.dcache.ReadReq_misses::total        301873                       # number of ReadReq misses
system.cpu.dcache.ReadReq_miss_latency::.cpu.data   6873483500                       # number of ReadReq miss cycles
system.cpu.dcache.ReadReq_miss_latency::total   6873483500                       # number of ReadReq miss cycles
system.cpu.dcache.ReadReq_accesses::.cpu.data     41123244                       # number of ReadReq accesses(hits+misses)
system.cpu.dcache.ReadReq_accesses::total     41123244                       # number of ReadReq accesses(hits+misses)
system.cpu.dcache.ReadReq_miss_rate::.cpu.data     0.007341                       # miss rate for ReadReq accesses
system.cpu.dcache.ReadReq_miss_rate::total     0.007341                       # miss rate for ReadReq accesses
system.cpu.dcache.ReadReq_avg_miss_latency::.cpu.data 22769.454373                       # average ReadReq miss latency
system.cpu.dcache.ReadReq_avg_miss_latency::total 22769.454373                       # average ReadReq miss latency
system.cpu.dcache.ReadReq_mshr_hits::.cpu.data          739                       # number of ReadReq MSHR hits
system.cpu.dcache.ReadReq_mshr_hits::total          739                       # number of ReadReq MSHR hits
system.cpu.dcache.ReadReq_mshr_misses::.cpu.data       301134                       # number of ReadReq MSHR misses
system.cpu.dcache.ReadReq_mshr_misses::total       301134                       # number of ReadReq MSHR misses
system.cpu.dcache.ReadReq_mshr_miss_latency::.cpu.data   6529853000                       # number of ReadReq MSHR miss cycles
system.cpu.dcache.ReadReq_mshr_miss_latency::total   6529853000                       # number of ReadReq MSHR miss cycles
system.cpu.dcache.ReadReq_mshr_miss_rate::.cpu.data     0.007323                       # mshr miss rate for ReadReq accesses
system.cpu.dcache.ReadReq_mshr_miss_rate::total     0.007323                       # mshr miss rate for ReadReq accesses
system.cpu.dcache.ReadReq_avg_mshr_miss_latency::.cpu.data 21684.210352                       # average ReadReq mshr miss latency
system.cpu.dcache.ReadReq_avg_mshr_miss_latency::total 21684.210352                       # average ReadReq mshr miss latency
system.cpu.dcache.WriteReq_hits::.cpu.data     10648201                       # number of WriteReq hits
system.cpu.dcache.WriteReq_hits::total       10648201                       # number of WriteReq hits
system.cpu.dcache.WriteReq_misses::.cpu.data       301900                       # number of WriteReq misses
system.cpu.dcache.WriteReq_misses::total       301900                       # number of WriteReq misses
system.cpu.dcache.WriteReq_miss_latency::.cpu.data  14168224500                       # number of WriteReq miss cycles
system.cpu.dcache.WriteReq_miss_latency::total  14168224500                       # number of WriteReq miss cycles
system.cpu.dcache.WriteReq_accesses::.cpu.data     10950101                       # number of WriteReq accesses(hits+misses)
system.cpu.dcache.WriteReq_accesses::total     10950101                       # number of WriteReq accesses(hits+misses)
system.cpu.dcache.WriteReq_miss_rate::.cpu.data     0.027571                       # miss rate for WriteReq accesses
system.cpu.dcache.WriteReq_miss_rate::total     0.027571                       # miss rate for WriteReq accesses
system.cpu.dcache.WriteReq_avg_miss_latency::.cpu.data 46930.190460                       # average WriteReq miss latency
system.cpu.dcache.WriteReq_avg_miss_latency::total 46930.190460                       # average WriteReq miss latency
system.cpu.dcache.WriteReq_mshr_hits::.cpu.data        58187                       # number of WriteReq MSHR hits
system.cpu.dcache.WriteReq_mshr_hits::total        58187                       # number of WriteReq MSHR hits
system.cpu.dcache.WriteReq_mshr_misses::.cpu.data       243713                       # number of WriteReq MSHR misses
system.cpu.dcache.WriteReq_mshr_misses::total       243713                       # number of WriteReq MSHR misses
system.cpu.dcache.WriteReq_mshr_miss_latency::.cpu.data  12399578000                       # number of WriteReq MSHR miss cycles
system.cpu.dcache.WriteReq_mshr_miss_latency::total  12399578000                       # number of WriteReq MSHR miss cycles
system.cpu.dcache.WriteReq_mshr_miss_rate::.cpu.data     0.022257                       # mshr miss rate for WriteReq accesses
system.cpu.dcache.WriteReq_mshr_miss_rate::total     0.022257                       # mshr miss rate for WriteReq accesses
system.cpu.dcache.WriteReq_avg_mshr_miss_latency::.cpu.data 50877.786577                       # average WriteReq mshr miss latency
system.cpu.dcache.WriteReq_avg_mshr_miss_latency::total 50877.786577                       # average WriteReq mshr miss latency
system.cpu.dcache.SoftPFReq_hits::.cpu.data          508                       # number of SoftPFReq hits
system.cpu.dcache.SoftPFReq_hits::total           508                       # number of SoftPFReq hits
system.cpu.dcache.SoftPFReq_misses::.cpu.data         7911                       # number of SoftPFReq misses
system.cpu.dcache.SoftPFReq_misses::total         7911                       # number of SoftPFReq misses
system.cpu.dcache.SoftPFReq_accesses::.cpu.data         8419                       # number of SoftPFReq accesses(hits+misses)
system.cpu.dcache.SoftPFReq_accesses::total         8419                       # number of SoftPFReq accesses(hits+misses)
system.cpu.dcache.SoftPFReq_miss_rate::.cpu.data     0.939660                       # miss rate for SoftPFReq accesses
system.cpu.dcache.SoftPFReq_miss_rate::total     0.939660                       # miss rate for SoftPFReq accesses
system.cpu.dcache.SoftPFReq_mshr_misses::.cpu.data         7906                       # number of SoftPFReq MSHR misses
system.cpu.dcache.SoftPFReq_mshr_misses::total         7906                       # number of SoftPFReq MSHR misses
system.cpu.dcache.SoftPFReq_mshr_miss_latency::.cpu.data    644560999                       # number of SoftPFReq MSHR miss cycles
system.cpu.dcache.SoftPFReq_mshr_miss_latency::total    644560999                       # number of SoftPFReq MSHR miss cycles
system.cpu.dcache.SoftPFReq_mshr_miss_rate::.cpu.data     0.939066                       # mshr miss rate for SoftPFReq accesses
system.cpu.dcache.SoftPFReq_mshr_miss_rate::total     0.939066                       # mshr miss rate for SoftPFReq accesses
system.cpu.dcache.SoftPFReq_avg_mshr_miss_latency::.cpu.data 81528.079813                       # average SoftPFReq mshr miss latency
system.cpu.dcache.SoftPFReq_avg_mshr_miss_latency::total 81528.079813                       # average SoftPFReq mshr miss latency
system.cpu.dcache.LoadLockedReq_hits::.cpu.data           38                       # number of LoadLockedReq hits
system.cpu.dcache.LoadLockedReq_hits::total           38                       # number of LoadLockedReq hits
system.cpu.dcache.LoadLockedReq_accesses::.cpu.data           38                       # number of LoadLockedReq accesses(hits+misses)
system.cpu.dcache.LoadLockedReq_accesses::total           38                       # number of LoadLockedReq accesses(hits+misses)
system.cpu.dcache.StoreCondReq_hits::.cpu.data           38                       # number of StoreCondReq hits
system.cpu.dcache.StoreCondReq_hits::total           38                       # number of StoreCondReq hits
system.cpu.dcache.StoreCondReq_accesses::.cpu.data           38                       # number of StoreCondReq accesses(hits+misses)
system.cpu.dcache.StoreCondReq_accesses::total           38                       # number of StoreCondReq accesses(hits+misses)
system.cpu.dcache.tags.pwrStateResidencyTicks::UNDEFINED  81217308500                       # Cumulative time (in ticks) in various power states
system.cpu.dcache.tags.tagsinuse          2011.991158                       # Cycle average of tags in use
system.cpu.dcache.tags.total_refs            52022908                       # Total number of references to valid blocks.
system.cpu.dcache.tags.sampled_refs            552752                       # Sample count of references to valid blocks.
system.cpu.dcache.tags.avg_refs             94.116182                       # Average number of references to valid blocks.
system.cpu.dcache.tags.warmup_cycle            176500                       # Cycle when the warmup percentage was hit.
system.cpu.dcache.tags.occ_blocks::.cpu.data  2011.991158                       # Average occupied blocks per requestor
system.cpu.dcache.tags.occ_percent::.cpu.data     0.982418                       # Average percentage of cache occupancy
system.cpu.dcache.tags.occ_percent::total     0.982418                       # Average percentage of cache occupancy
system.cpu.dcache.tags.occ_task_id_blocks::1024         2048                       # Occupied blocks per task id
system.cpu.dcache.tags.age_task_id_blocks_1024::0          320                       # Occupied blocks per task id
system.cpu.dcache.tags.age_task_id_blocks_1024::1          597                       # Occupied blocks per task id
system.cpu.dcache.tags.age_task_id_blocks_1024::2         1106                       # Occupied blocks per task id
system.cpu.dcache.tags.age_task_id_blocks_1024::3           23                       # Occupied blocks per task id
system.cpu.dcache.tags.age_task_id_blocks_1024::4            2                       # Occupied blocks per task id
system.cpu.dcache.tags.occ_task_id_percent::1024            1                       # Percentage of cache occupancy per task id
system.cpu.dcache.tags.tag_accesses         104716432                       # Number of tag accesses
system.cpu.dcache.tags.data_accesses        104716432                       # Number of data accesses
system.cpu.itb.walker.pwrStateResidencyTicks::UNDEFINED  81217308500                       # Cumulative time (in ticks) in various power states
system.cpu.itb.stage2_mmu.stage2_tlb.walker.pwrStateResidencyTicks::UNDEFINED  81217308500                       # Cumulative time (in ticks) in various power states

---------- End Simulation Statistics   ----------
