
---------- Begin Simulation Statistics ----------
final_tick                               258777987500                       # Number of ticks from beginning of simulation (restored from checkpoints and never reset)
host_inst_rate                                 157406                       # Simulator instruction rate (inst/s)
host_mem_usage                                 687164                       # Number of bytes of host memory used
host_op_rate                                   289902                       # Simulator op (including micro ops) rate (op/s)
host_seconds                                   635.30                       # Real time elapsed on the host
host_tick_rate                              407331239                       # Simulator tick rate (ticks/s)
sim_freq                                 1000000000000                       # Frequency of simulated ticks
sim_insts                                   100000000                       # Number of instructions simulated
sim_ops                                     184174857                       # Number of ops (including micro ops) simulated
sim_seconds                                  0.258778                       # Number of seconds simulated
sim_ticks                                258777987500                       # Number of ticks simulated
system.cpu.branchPred.BTBCorrect                    0                       # Number of correct BTB predictions (this stat may not work properly.
system.cpu.branchPred.BTBHitPct             99.955772                       # BTB Hit Percentage
system.cpu.branchPred.BTBHits                10560998                       # Number of BTB hits
system.cpu.branchPred.BTBLookups             10565671                       # Number of BTB lookups
system.cpu.branchPred.RASInCorrect                  5                       # Number of incorrect RAS predictions.
system.cpu.branchPred.condIncorrect              1454                       # Number of conditional branches incorrect
system.cpu.branchPred.condPredicted          10562135                       # Number of conditional branches predicted
system.cpu.branchPred.indirectHits                 30                       # Number of indirect target hits.
system.cpu.branchPred.indirectLookups             216                       # Number of indirect predictor lookups.
system.cpu.branchPred.indirectMisses              186                       # Number of indirect misses.
system.cpu.branchPred.lookups                10570379                       # Number of BP lookups
system.cpu.branchPred.usedRAS                    2732                       # Number of times the RAS was used to get a target.
system.cpu.branchPredindirectMispredicted           97                       # Number of mispredicted indirect branches.
system.cpu.committedInsts                   100000000                       # Number of instructions committed
system.cpu.committedOps                     184174857                       # Number of ops (including micro ops) committed
system.cpu.cpi                               5.175560                       # CPI: cycles per instruction
system.cpu.discardedOps                          4308                       # Number of ops (including micro ops) which were discarded before commit
system.cpu.dtb.accesses                             0                       # DTB accesses
system.cpu.dtb.align_faults                         0                       # Number of TLB faults due to alignment restrictions
system.cpu.dtb.domain_faults                        0                       # Number of TLB faults due to domain restrictions
system.cpu.dtb.flush_entries                        0                       # Number of entries that have been flushed from TLB
system.cpu.dtb.flush_tlb                            0                       # Number of times complete TLB was flushed
system.cpu.dtb.flush_tlb_asid                       0                       # Number of times TLB was flushed by ASID
system.cpu.dtb.flush_tlb_mva                        0                       # Number of times TLB was flushed by MVA
system.cpu.dtb.flush_tlb_mva_asid                   0                       # Number of times TLB was flushed by MVA & ASID
system.cpu.dtb.hits                                 0                       # DTB hits
system.cpu.dtb.inst_accesses                        0                       # ITB inst accesses
system.cpu.dtb.inst_hits                            0                       # ITB inst hits
system.cpu.dtb.inst_misses                          0                       # ITB inst misses
system.cpu.dtb.misses                               0                       # DTB misses
system.cpu.dtb.perms_faults                         0                       # Number of TLB faults due to permissions restrictions
system.cpu.dtb.prefetch_faults                      0                       # Number of TLB faults due to prefetch
system.cpu.dtb.read_accesses                        0                       # DTB read accesses
system.cpu.dtb.read_hits                            0                       # DTB read hits
system.cpu.dtb.read_misses                          0                       # DTB read misses
system.cpu.dtb.stage2_mmu.stage2_tlb.accesses            0                       # DTB accesses
system.cpu.dtb.stage2_mmu.stage2_tlb.align_faults            0                       # Number of TLB faults due to alignment restrictions
system.cpu.dtb.stage2_mmu.stage2_tlb.domain_faults            0                       # Number of TLB faults due to domain restrictions
system.cpu.dtb.stage2_mmu.stage2_tlb.flush_entries            0                       # Number of entries that have been flushed from TLB
system.cpu.dtb.stage2_mmu.stage2_tlb.flush_tlb            0                       # Number of times complete TLB was flushed
system.cpu.dtb.stage2_mmu.stage2_tlb.flush_tlb_asid            0                       # Number of times TLB was flushed by ASID
system.cpu.dtb.stage2_mmu.stage2_tlb.flush_tlb_mva            0                       # Number of times TLB was flushed by MVA
system.cpu.dtb.stage2_mmu.stage2_tlb.flush_tlb_mva_asid            0                       # Number of times TLB was flushed by MVA & ASID
system.cpu.dtb.stage2_mmu.stage2_tlb.hits            0                       # DTB hits
system.cpu.dtb.stage2_mmu.stage2_tlb.inst_accesses            0                       # ITB inst accesses
system.cpu.dtb.stage2_mmu.stage2_tlb.inst_hits            0                       # ITB inst hits
system.cpu.dtb.stage2_mmu.stage2_tlb.inst_misses            0                       # ITB inst misses
system.cpu.dtb.stage2_mmu.stage2_tlb.misses            0                       # DTB misses
system.cpu.dtb.stage2_mmu.stage2_tlb.perms_faults            0                       # Number of TLB faults due to permissions restrictions
system.cpu.dtb.stage2_mmu.stage2_tlb.prefetch_faults            0                       # Number of TLB faults due to prefetch
system.cpu.dtb.stage2_mmu.stage2_tlb.read_accesses            0                       # DTB read accesses
system.cpu.dtb.stage2_mmu.stage2_tlb.read_hits            0                       # DTB read hits
system.cpu.dtb.stage2_mmu.stage2_tlb.read_misses            0                       # DTB read misses
system.cpu.dtb.stage2_mmu.stage2_tlb.walker.walkRequestOrigin_Requested::Data            0                       # Table walker requests started/completed, data/inst
system.cpu.dtb.stage2_mmu.stage2_tlb.walker.walkRequestOrigin_Requested::Inst            0                       # Table walker requests started/completed, data/inst
system.cpu.dtb.stage2_mmu.stage2_tlb.walker.walkRequestOrigin_Requested::total            0                       # Table walker requests started/completed, data/inst
system.cpu.dtb.stage2_mmu.stage2_tlb.walker.walkRequestOrigin_Completed::Data            0                       # Table walker requests started/completed, data/inst
system.cpu.dtb.stage2_mmu.stage2_tlb.walker.walkRequestOrigin_Completed::Inst            0                       # Table walker requests started/completed, data/inst
system.cpu.dtb.stage2_mmu.stage2_tlb.walker.walkRequestOrigin_Completed::total            0                       # Table walker requests started/completed, data/inst
system.cpu.dtb.stage2_mmu.stage2_tlb.walker.walkRequestOrigin::total            0                       # Table walker requests started/completed, data/inst
system.cpu.dtb.stage2_mmu.stage2_tlb.walker.walks            0                       # Table walker walks requested
system.cpu.dtb.stage2_mmu.stage2_tlb.write_accesses            0                       # DTB write accesses
system.cpu.dtb.stage2_mmu.stage2_tlb.write_hits            0                       # DTB write hits
system.cpu.dtb.stage2_mmu.stage2_tlb.write_misses            0                       # DTB write misses
system.cpu.dtb.walker.walkRequestOrigin_Requested::Data            0                       # Table walker requests started/completed, data/inst
system.cpu.dtb.walker.walkRequestOrigin_Requested::Inst            0                       # Table walker requests started/completed, data/inst
system.cpu.dtb.walker.walkRequestOrigin_Requested::total            0                       # Table walker requests started/completed, data/inst
system.cpu.dtb.walker.walkRequestOrigin_Completed::Data            0                       # Table walker requests started/completed, data/inst
system.cpu.dtb.walker.walkRequestOrigin_Completed::Inst            0                       # Table walker requests started/completed, data/inst
system.cpu.dtb.walker.walkRequestOrigin_Completed::total            0                       # Table walker requests started/completed, data/inst
system.cpu.dtb.walker.walkRequestOrigin::total            0                       # Table walker requests started/completed, data/inst
system.cpu.dtb.walker.walks                         0                       # Table walker walks requested
system.cpu.dtb.write_accesses                       0                       # DTB write accesses
system.cpu.dtb.write_hits                           0                       # DTB write hits
system.cpu.dtb.write_misses                         0                       # DTB write misses
system.cpu.fetch2.amo_instructions                  0                       # Number of memory atomic instructions successfully decoded
system.cpu.fetch2.fp_instructions                   0                       # Number of floating point instructions successfully decoded
system.cpu.fetch2.int_instructions           44895227                       # Number of integer instructions successfully decoded
system.cpu.fetch2.load_instructions           2086484                       # Number of memory load instructions successfully decoded
system.cpu.fetch2.store_instructions           169159                       # Number of memory store instructions successfully decoded
system.cpu.fetch2.vec_instructions                  0                       # Number of SIMD instructions successfully decoded
system.cpu.idleCycles                       300301767                       # Total number of cycles that the object has spent stopped
system.cpu.ipc                               0.193216                       # IPC: instructions per cycle
system.cpu.itb.accesses                             0                       # DTB accesses
system.cpu.itb.align_faults                         0                       # Number of TLB faults due to alignment restrictions
system.cpu.itb.domain_faults                        0                       # Number of TLB faults due to domain restrictions
system.cpu.itb.flush_entries                        0                       # Number of entries that have been flushed from TLB
system.cpu.itb.flush_tlb                            0                       # Number of times complete TLB was flushed
system.cpu.itb.flush_tlb_asid                       0                       # Number of times TLB was flushed by ASID
system.cpu.itb.flush_tlb_mva                        0                       # Number of times TLB was flushed by MVA
system.cpu.itb.flush_tlb_mva_asid                   0                       # Number of times TLB was flushed by MVA & ASID
system.cpu.itb.hits                                 0                       # DTB hits
system.cpu.itb.inst_accesses                        0                       # ITB inst accesses
system.cpu.itb.inst_hits                            0                       # ITB inst hits
system.cpu.itb.inst_misses                          0                       # ITB inst misses
system.cpu.itb.misses                               0                       # DTB misses
system.cpu.itb.perms_faults                         0                       # Number of TLB faults due to permissions restrictions
system.cpu.itb.prefetch_faults                      0                       # Number of TLB faults due to prefetch
system.cpu.itb.read_accesses                        0                       # DTB read accesses
system.cpu.itb.read_hits                            0                       # DTB read hits
system.cpu.itb.read_misses                          0                       # DTB read misses
system.cpu.itb.stage2_mmu.stage2_tlb.accesses            0                       # DTB accesses
system.cpu.itb.stage2_mmu.stage2_tlb.align_faults            0                       # Number of TLB faults due to alignment restrictions
system.cpu.itb.stage2_mmu.stage2_tlb.domain_faults            0                       # Number of TLB faults due to domain restrictions
system.cpu.itb.stage2_mmu.stage2_tlb.flush_entries            0                       # Number of entries that have been flushed from TLB
system.cpu.itb.stage2_mmu.stage2_tlb.flush_tlb            0                       # Number of times complete TLB was flushed
system.cpu.itb.stage2_mmu.stage2_tlb.flush_tlb_asid            0                       # Number of times TLB was flushed by ASID
system.cpu.itb.stage2_mmu.stage2_tlb.flush_tlb_mva            0                       # Number of times TLB was flushed by MVA
system.cpu.itb.stage2_mmu.stage2_tlb.flush_tlb_mva_asid            0                       # Number of times TLB was flushed by MVA & ASID
system.cpu.itb.stage2_mmu.stage2_tlb.hits            0                       # DTB hits
system.cpu.itb.stage2_mmu.stage2_tlb.inst_accesses            0                       # ITB inst accesses
system.cpu.itb.stage2_mmu.stage2_tlb.inst_hits            0                       # ITB inst hits
system.cpu.itb.stage2_mmu.stage2_tlb.inst_misses            0                       # ITB inst misses
system.cpu.itb.stage2_mmu.stage2_tlb.misses            0                       # DTB misses
system.cpu.itb.stage2_mmu.stage2_tlb.perms_faults            0                       # Number of TLB faults due to permissions restrictions
system.cpu.itb.stage2_mmu.stage2_tlb.prefetch_faults            0                       # Number of TLB faults due to prefetch
system.cpu.itb.stage2_mmu.stage2_tlb.read_accesses            0                       # DTB read accesses
system.cpu.itb.stage2_mmu.stage2_tlb.read_hits            0                       # DTB read hits
system.cpu.itb.stage2_mmu.stage2_tlb.read_misses            0                       # DTB read misses
system.cpu.itb.stage2_mmu.stage2_tlb.walker.walkRequestOrigin_Requested::Data            0                       # Table walker requests started/completed, data/inst
system.cpu.itb.stage2_mmu.stage2_tlb.walker.walkRequestOrigin_Requested::Inst            0                       # Table walker requests started/completed, data/inst
system.cpu.itb.stage2_mmu.stage2_tlb.walker.walkRequestOrigin_Requested::total            0                       # Table walker requests started/completed, data/inst
system.cpu.itb.stage2_mmu.stage2_tlb.walker.walkRequestOrigin_Completed::Data            0                       # Table walker requests started/completed, data/inst
system.cpu.itb.stage2_mmu.stage2_tlb.walker.walkRequestOrigin_Completed::Inst            0                       # Table walker requests started/completed, data/inst
system.cpu.itb.stage2_mmu.stage2_tlb.walker.walkRequestOrigin_Completed::total            0                       # Table walker requests started/completed, data/inst
system.cpu.itb.stage2_mmu.stage2_tlb.walker.walkRequestOrigin::total            0                       # Table walker requests started/completed, data/inst
system.cpu.itb.stage2_mmu.stage2_tlb.walker.walks            0                       # Table walker walks requested
system.cpu.itb.stage2_mmu.stage2_tlb.write_accesses            0                       # DTB write accesses
system.cpu.itb.stage2_mmu.stage2_tlb.write_hits            0                       # DTB write hits
system.cpu.itb.stage2_mmu.stage2_tlb.write_misses            0                       # DTB write misses
system.cpu.itb.walker.walkRequestOrigin_Requested::Data            0                       # Table walker requests started/completed, data/inst
system.cpu.itb.walker.walkRequestOrigin_Requested::Inst            0                       # Table walker requests started/completed, data/inst
system.cpu.itb.walker.walkRequestOrigin_Requested::total            0                       # Table walker requests started/completed, data/inst
system.cpu.itb.walker.walkRequestOrigin_Completed::Data            0                       # Table walker requests started/completed, data/inst
system.cpu.itb.walker.walkRequestOrigin_Completed::Inst            0                       # Table walker requests started/completed, data/inst
system.cpu.itb.walker.walkRequestOrigin_Completed::total            0                       # Table walker requests started/completed, data/inst
system.cpu.itb.walker.walkRequestOrigin::total            0                       # Table walker requests started/completed, data/inst
system.cpu.itb.walker.walks                         0                       # Table walker walks requested
system.cpu.itb.write_accesses                       0                       # DTB write accesses
system.cpu.itb.write_hits                           0                       # DTB write hits
system.cpu.itb.write_misses                         0                       # DTB write misses
system.cpu.numCycles                        517555975                       # number of cpu cycles simulated
system.cpu.numFetchSuspends                         0                       # Number of times Execute suspended instruction fetching
system.cpu.numWorkItemsCompleted                    0                       # number of work items this cpu completed
system.cpu.numWorkItemsStarted                      0                       # number of work items this cpu started
system.cpu.op_class_0::No_OpClass                   0      0.00%      0.00% # Class of committed instruction
system.cpu.op_class_0::IntAlu                97640483     53.02%     53.02% # Class of committed instruction
system.cpu.op_class_0::IntMult                 114699      0.06%     53.08% # Class of committed instruction
system.cpu.op_class_0::IntDiv                       0      0.00%     53.08% # Class of committed instruction
system.cpu.op_class_0::FloatAdd                     0      0.00%     53.08% # Class of committed instruction
system.cpu.op_class_0::FloatCmp                     0      0.00%     53.08% # Class of committed instruction
system.cpu.op_class_0::FloatCvt                     0      0.00%     53.08% # Class of committed instruction
system.cpu.op_class_0::FloatMult                    0      0.00%     53.08% # Class of committed instruction
system.cpu.op_class_0::FloatMultAcc                 0      0.00%     53.08% # Class of committed instruction
system.cpu.op_class_0::FloatDiv                     0      0.00%     53.08% # Class of committed instruction
system.cpu.op_class_0::FloatMisc                    0      0.00%     53.08% # Class of committed instruction
system.cpu.op_class_0::FloatSqrt                    0      0.00%     53.08% # Class of committed instruction
system.cpu.op_class_0::SimdAdd                      8      0.00%     53.08% # Class of committed instruction
system.cpu.op_class_0::SimdAddAcc                   0      0.00%     53.08% # Class of committed instruction
system.cpu.op_class_0::SimdAlu                      8      0.00%     53.08% # Class of committed instruction
system.cpu.op_class_0::SimdCmp                      6      0.00%     53.08% # Class of committed instruction
system.cpu.op_class_0::SimdCvt                      0      0.00%     53.08% # Class of committed instruction
system.cpu.op_class_0::SimdMisc                     1      0.00%     53.08% # Class of committed instruction
system.cpu.op_class_0::SimdMult                     0      0.00%     53.08% # Class of committed instruction
system.cpu.op_class_0::SimdMultAcc                  0      0.00%     53.08% # Class of committed instruction
system.cpu.op_class_0::SimdShift                    0      0.00%     53.08% # Class of committed instruction
system.cpu.op_class_0::SimdShiftAcc                 0      0.00%     53.08% # Class of committed instruction
system.cpu.op_class_0::SimdDiv                      0      0.00%     53.08% # Class of committed instruction
system.cpu.op_class_0::SimdSqrt                     0      0.00%     53.08% # Class of committed instruction
system.cpu.op_class_0::SimdFloatAdd                 0      0.00%     53.08% # Class of committed instruction
system.cpu.op_class_0::SimdFloatAlu                 0      0.00%     53.08% # Class of committed instruction
system.cpu.op_class_0::SimdFloatCmp                 0      0.00%     53.08% # Class of committed instruction
system.cpu.op_class_0::SimdFloatCvt                 0      0.00%     53.08% # Class of committed instruction
system.cpu.op_class_0::SimdFloatDiv                 0      0.00%     53.08% # Class of committed instruction
system.cpu.op_class_0::SimdFloatMisc               23      0.00%     53.08% # Class of committed instruction
system.cpu.op_class_0::SimdFloatMult                0      0.00%     53.08% # Class of committed instruction
system.cpu.op_class_0::SimdFloatMultAcc             0      0.00%     53.08% # Class of committed instruction
system.cpu.op_class_0::SimdFloatSqrt                0      0.00%     53.08% # Class of committed instruction
system.cpu.op_class_0::SimdReduceAdd                0      0.00%     53.08% # Class of committed instruction
system.cpu.op_class_0::SimdReduceAlu                0      0.00%     53.08% # Class of committed instruction
system.cpu.op_class_0::SimdReduceCmp                0      0.00%     53.08% # Class of committed instruction
system.cpu.op_class_0::SimdFloatReduceAdd            0      0.00%     53.08% # Class of committed instruction
system.cpu.op_class_0::SimdFloatReduceCmp            0      0.00%     53.08% # Class of committed instruction
system.cpu.op_class_0::SimdAes                      0      0.00%     53.08% # Class of committed instruction
system.cpu.op_class_0::SimdAesMix                   0      0.00%     53.08% # Class of committed instruction
system.cpu.op_class_0::SimdSha1Hash                 0      0.00%     53.08% # Class of committed instruction
system.cpu.op_class_0::SimdSha1Hash2                0      0.00%     53.08% # Class of committed instruction
system.cpu.op_class_0::SimdSha256Hash               0      0.00%     53.08% # Class of committed instruction
system.cpu.op_class_0::SimdSha256Hash2              0      0.00%     53.08% # Class of committed instruction
system.cpu.op_class_0::SimdShaSigma2                0      0.00%     53.08% # Class of committed instruction
system.cpu.op_class_0::SimdShaSigma3                0      0.00%     53.08% # Class of committed instruction
system.cpu.op_class_0::SimdPredAlu                  0      0.00%     53.08% # Class of committed instruction
system.cpu.op_class_0::MemRead                2082677      1.13%     54.21% # Class of committed instruction
system.cpu.op_class_0::MemWrite              84336952     45.79%    100.00% # Class of committed instruction
system.cpu.op_class_0::FloatMemRead                 0      0.00%    100.00% # Class of committed instruction
system.cpu.op_class_0::FloatMemWrite                0      0.00%    100.00% # Class of committed instruction
system.cpu.op_class_0::IprAccess                    0      0.00%    100.00% # Class of committed instruction
system.cpu.op_class_0::InstPrefetch                 0      0.00%    100.00% # Class of committed instruction
system.cpu.op_class_0::total                184174857                       # Class of committed instruction
system.cpu.tickCycles                       217254208                       # Number of cycles that the object actually ticked
system.cpu.workload.numSyscalls                    18                       # Number of system calls
system.membus.snoop_filter.hit_multi_requests            0                       # Number of requests hitting in the snoop filter with multiple (>1) holders of the requested data.
system.membus.snoop_filter.hit_multi_snoops            0                       # Number of snoops hitting in the snoop filter with multiple (>1) holders of the requested data.
system.membus.snoop_filter.hit_single_requests      1307977                       # Number of requests hitting in the snoop filter with a single holder of the requested data.
system.membus.snoop_filter.hit_single_snoops            0                       # Number of snoops hitting in the snoop filter with a single holder of the requested data.
system.membus.snoop_filter.tot_requests       2624264                       # Total number of requests made to the snoop filter.
system.membus.snoop_filter.tot_snoops               0                       # Total number of snoops made to the snoop filter.
system.tol2bus.snoop_filter.hit_multi_requests           54                       # Number of requests hitting in the snoop filter with multiple (>1) holders of the requested data.
system.tol2bus.snoop_filter.hit_multi_snoops            0                       # Number of snoops hitting in the snoop filter with multiple (>1) holders of the requested data.
system.tol2bus.snoop_filter.hit_single_requests      1316064                       # Number of requests hitting in the snoop filter with a single holder of the requested data.
system.tol2bus.snoop_filter.hit_single_snoops          207                       # Number of snoops hitting in the snoop filter with a single holder of the requested data.
system.tol2bus.snoop_filter.tot_requests      2632511                       # Total number of requests made to the snoop filter.
system.tol2bus.snoop_filter.tot_snoops            207                       # Total number of snoops made to the snoop filter.
system.membus.pwrStateResidencyTicks::UNDEFINED 258777987500                       # Cumulative time (in ticks) in various power states
system.membus.trans_dist::ReadResp                419                       # Transaction distribution
system.membus.trans_dist::WritebackDirty      1307705                       # Transaction distribution
system.membus.trans_dist::CleanEvict              263                       # Transaction distribution
system.membus.trans_dist::ReadExReq           1315877                       # Transaction distribution
system.membus.trans_dist::ReadExResp          1315877                       # Transaction distribution
system.membus.trans_dist::ReadSharedReq           419                       # Transaction distribution
system.membus.pkt_count_system.l2.mem_side::system.mem_ctrls.port      3940560                       # Packet count per connected master and slave (bytes)
system.membus.pkt_count::total                3940560                       # Packet count per connected master and slave (bytes)
system.membus.pkt_size_system.l2.mem_side::system.mem_ctrls.port    671744256                       # Cumulative packet size per connected master and slave (bytes)
system.membus.pkt_size::total               671744256                       # Cumulative packet size per connected master and slave (bytes)
system.membus.snoops                                0                       # Total snoops (count)
system.membus.snoopTraffic                          0                       # Total snoop traffic (bytes)
system.membus.snoop_fanout::samples           1316296                       # Request fanout histogram
system.membus.snoop_fanout::mean                    0                       # Request fanout histogram
system.membus.snoop_fanout::stdev                   0                       # Request fanout histogram
system.membus.snoop_fanout::underflows              0      0.00%      0.00% # Request fanout histogram
system.membus.snoop_fanout::0                 1316296    100.00%    100.00% # Request fanout histogram
system.membus.snoop_fanout::1                       0      0.00%    100.00% # Request fanout histogram
system.membus.snoop_fanout::overflows               0      0.00%    100.00% # Request fanout histogram
system.membus.snoop_fanout::min_value               0                       # Request fanout histogram
system.membus.snoop_fanout::max_value               0                       # Request fanout histogram
system.membus.snoop_fanout::total             1316296                       # Request fanout histogram
system.membus.respLayer1.occupancy        22745460750                       # Layer occupancy (ticks)
system.membus.respLayer1.utilization              8.8                       # Layer utilization (%)
system.membus.reqLayer0.occupancy         23547791500                       # Layer occupancy (ticks)
system.membus.reqLayer0.utilization               9.1                       # Layer utilization (%)
system.tol2bus.pwrStateResidencyTicks::UNDEFINED 258777987500                       # Cumulative time (in ticks) in various power states
system.tol2bus.trans_dist::ReadResp               557                       # Transaction distribution
system.tol2bus.trans_dist::WritebackDirty      2623369                       # Transaction distribution
system.tol2bus.trans_dist::WritebackClean          235                       # Transaction distribution
system.tol2bus.trans_dist::CleanEvict             635                       # Transaction distribution
system.tol2bus.trans_dist::ReadExReq          1315890                       # Transaction distribution
system.tol2bus.trans_dist::ReadExResp         1315890                       # Transaction distribution
system.tol2bus.trans_dist::ReadCleanReq           362                       # Transaction distribution
system.tol2bus.trans_dist::ReadSharedReq          195                       # Transaction distribution
system.tol2bus.pkt_count_system.cpu.icache.mem_side::system.l2.cpu_side          959                       # Packet count per connected master and slave (bytes)
system.tol2bus.pkt_count_system.cpu.dcache.mem_side::system.l2.cpu_side      3947999                       # Packet count per connected master and slave (bytes)
system.tol2bus.pkt_count::total               3948958                       # Packet count per connected master and slave (bytes)
system.tol2bus.pkt_size_system.cpu.icache.mem_side::system.l2.cpu_side       152832                       # Cumulative packet size per connected master and slave (bytes)
system.tol2bus.pkt_size_system.cpu.dcache.mem_side::system.l2.cpu_side    673727744                       # Cumulative packet size per connected master and slave (bytes)
system.tol2bus.pkt_size::total              673880576                       # Cumulative packet size per connected master and slave (bytes)
system.tol2bus.snoops                         1308175                       # Total snoops (count)
system.tol2bus.snoopTraffic                 334772480                       # Total snoop traffic (bytes)
system.tol2bus.snoop_fanout::samples          2624622                       # Request fanout histogram
system.tol2bus.snoop_fanout::mean            0.000099                       # Request fanout histogram
system.tol2bus.snoop_fanout::stdev           0.009972                       # Request fanout histogram
system.tol2bus.snoop_fanout::underflows             0      0.00%      0.00% # Request fanout histogram
system.tol2bus.snoop_fanout::0                2624361     99.99%     99.99% # Request fanout histogram
system.tol2bus.snoop_fanout::1                    261      0.01%    100.00% # Request fanout histogram
system.tol2bus.snoop_fanout::2                      0      0.00%    100.00% # Request fanout histogram
system.tol2bus.snoop_fanout::overflows              0      0.00%    100.00% # Request fanout histogram
system.tol2bus.snoop_fanout::min_value              0                       # Request fanout histogram
system.tol2bus.snoop_fanout::max_value              1                       # Request fanout histogram
system.tol2bus.snoop_fanout::total            2624622                       # Request fanout histogram
system.tol2bus.reqLayer0.occupancy         6579851500                       # Layer occupancy (ticks)
system.tol2bus.reqLayer0.utilization              2.5                       # Layer utilization (%)
system.tol2bus.respLayer1.occupancy        5922385993                       # Layer occupancy (ticks)
system.tol2bus.respLayer1.utilization             2.3                       # Layer utilization (%)
system.tol2bus.respLayer0.occupancy           1629000                       # Layer occupancy (ticks)
system.tol2bus.respLayer0.utilization             0.0                       # Layer utilization (%)
system.voltage_domain.voltage                       1                       # Voltage in Volts
system.clk_domain.clock                          1000                       # Clock period in ticks
system.l2.pwrStateResidencyTicks::UNDEFINED 258777987500                       # Cumulative time (in ticks) in various power states
system.l2.demand_hits::.cpu.inst                   91                       # number of demand (read+write) hits
system.l2.demand_hits::.cpu.data                   53                       # number of demand (read+write) hits
system.l2.demand_hits::total                      144                       # number of demand (read+write) hits
system.l2.overall_hits::.cpu.inst                  91                       # number of overall hits
system.l2.overall_hits::.cpu.data                  53                       # number of overall hits
system.l2.overall_hits::total                     144                       # number of overall hits
system.l2.demand_misses::.cpu.inst                271                       # number of demand (read+write) misses
system.l2.demand_misses::.cpu.data            1316032                       # number of demand (read+write) misses
system.l2.demand_misses::total                1316303                       # number of demand (read+write) misses
system.l2.overall_misses::.cpu.inst               271                       # number of overall misses
system.l2.overall_misses::.cpu.data           1316032                       # number of overall misses
system.l2.overall_misses::total               1316303                       # number of overall misses
system.l2.demand_miss_latency::.cpu.inst     28362500                       # number of demand (read+write) miss cycles
system.l2.demand_miss_latency::.cpu.data 155280568500                       # number of demand (read+write) miss cycles
system.l2.demand_miss_latency::total     155308931000                       # number of demand (read+write) miss cycles
system.l2.overall_miss_latency::.cpu.inst     28362500                       # number of overall miss cycles
system.l2.overall_miss_latency::.cpu.data 155280568500                       # number of overall miss cycles
system.l2.overall_miss_latency::total    155308931000                       # number of overall miss cycles
system.l2.demand_accesses::.cpu.inst              362                       # number of demand (read+write) accesses
system.l2.demand_accesses::.cpu.data          1316085                       # number of demand (read+write) accesses
system.l2.demand_accesses::total              1316447                       # number of demand (read+write) accesses
system.l2.overall_accesses::.cpu.inst             362                       # number of overall (read+write) accesses
system.l2.overall_accesses::.cpu.data         1316085                       # number of overall (read+write) accesses
system.l2.overall_accesses::total             1316447                       # number of overall (read+write) accesses
system.l2.demand_miss_rate::.cpu.inst        0.748619                       # miss rate for demand accesses
system.l2.demand_miss_rate::.cpu.data        0.999960                       # miss rate for demand accesses
system.l2.demand_miss_rate::total            0.999891                       # miss rate for demand accesses
system.l2.overall_miss_rate::.cpu.inst       0.748619                       # miss rate for overall accesses
system.l2.overall_miss_rate::.cpu.data       0.999960                       # miss rate for overall accesses
system.l2.overall_miss_rate::total           0.999891                       # miss rate for overall accesses
system.l2.demand_avg_miss_latency::.cpu.inst 104658.671587                       # average overall miss latency
system.l2.demand_avg_miss_latency::.cpu.data 117991.483870                       # average overall miss latency
system.l2.demand_avg_miss_latency::total 117988.738915                       # average overall miss latency
system.l2.overall_avg_miss_latency::.cpu.inst 104658.671587                       # average overall miss latency
system.l2.overall_avg_miss_latency::.cpu.data 117991.483870                       # average overall miss latency
system.l2.overall_avg_miss_latency::total 117988.738915                       # average overall miss latency
system.l2.blocked_cycles::no_mshrs                  0                       # number of cycles access was blocked
system.l2.blocked_cycles::no_targets                0                       # number of cycles access was blocked
system.l2.blocked::no_mshrs                         0                       # number of cycles access was blocked
system.l2.blocked::no_targets                       0                       # number of cycles access was blocked
system.l2.avg_blocked_cycles::no_mshrs            nan                       # average number of cycles each access was blocked
system.l2.avg_blocked_cycles::no_targets          nan                       # average number of cycles each access was blocked
system.l2.writebacks::.writebacks             1307705                       # number of writebacks
system.l2.writebacks::total                   1307705                       # number of writebacks
system.l2.demand_mshr_hits::.cpu.data               7                       # number of demand (read+write) MSHR hits
system.l2.demand_mshr_hits::total                   7                       # number of demand (read+write) MSHR hits
system.l2.overall_mshr_hits::.cpu.data              7                       # number of overall MSHR hits
system.l2.overall_mshr_hits::total                  7                       # number of overall MSHR hits
system.l2.demand_mshr_misses::.cpu.inst           271                       # number of demand (read+write) MSHR misses
system.l2.demand_mshr_misses::.cpu.data       1316025                       # number of demand (read+write) MSHR misses
system.l2.demand_mshr_misses::total           1316296                       # number of demand (read+write) MSHR misses
system.l2.overall_mshr_misses::.cpu.inst          271                       # number of overall MSHR misses
system.l2.overall_mshr_misses::.cpu.data      1316025                       # number of overall MSHR misses
system.l2.overall_mshr_misses::total          1316296                       # number of overall MSHR misses
system.l2.demand_mshr_miss_latency::.cpu.inst     25652500                       # number of demand (read+write) MSHR miss cycles
system.l2.demand_mshr_miss_latency::.cpu.data 142119742500                       # number of demand (read+write) MSHR miss cycles
system.l2.demand_mshr_miss_latency::total 142145395000                       # number of demand (read+write) MSHR miss cycles
system.l2.overall_mshr_miss_latency::.cpu.inst     25652500                       # number of overall MSHR miss cycles
system.l2.overall_mshr_miss_latency::.cpu.data 142119742500                       # number of overall MSHR miss cycles
system.l2.overall_mshr_miss_latency::total 142145395000                       # number of overall MSHR miss cycles
system.l2.demand_mshr_miss_rate::.cpu.inst     0.748619                       # mshr miss rate for demand accesses
system.l2.demand_mshr_miss_rate::.cpu.data     0.999954                       # mshr miss rate for demand accesses
system.l2.demand_mshr_miss_rate::total       0.999885                       # mshr miss rate for demand accesses
system.l2.overall_mshr_miss_rate::.cpu.inst     0.748619                       # mshr miss rate for overall accesses
system.l2.overall_mshr_miss_rate::.cpu.data     0.999954                       # mshr miss rate for overall accesses
system.l2.overall_mshr_miss_rate::total      0.999885                       # mshr miss rate for overall accesses
system.l2.demand_avg_mshr_miss_latency::.cpu.inst 94658.671587                       # average overall mshr miss latency
system.l2.demand_avg_mshr_miss_latency::.cpu.data 107991.673790                       # average overall mshr miss latency
system.l2.demand_avg_mshr_miss_latency::total 107988.928782                       # average overall mshr miss latency
system.l2.overall_avg_mshr_miss_latency::.cpu.inst 94658.671587                       # average overall mshr miss latency
system.l2.overall_avg_mshr_miss_latency::.cpu.data 107991.673790                       # average overall mshr miss latency
system.l2.overall_avg_mshr_miss_latency::total 107988.928782                       # average overall mshr miss latency
system.l2.replacements                        1308175                       # number of replacements
system.l2.WritebackDirty_hits::.writebacks      1315664                       # number of WritebackDirty hits
system.l2.WritebackDirty_hits::total          1315664                       # number of WritebackDirty hits
system.l2.WritebackDirty_accesses::.writebacks      1315664                       # number of WritebackDirty accesses(hits+misses)
system.l2.WritebackDirty_accesses::total      1315664                       # number of WritebackDirty accesses(hits+misses)
system.l2.WritebackClean_hits::.writebacks          224                       # number of WritebackClean hits
system.l2.WritebackClean_hits::total              224                       # number of WritebackClean hits
system.l2.WritebackClean_accesses::.writebacks          224                       # number of WritebackClean accesses(hits+misses)
system.l2.WritebackClean_accesses::total          224                       # number of WritebackClean accesses(hits+misses)
system.l2.ReadExReq_hits::.cpu.data                13                       # number of ReadExReq hits
system.l2.ReadExReq_hits::total                    13                       # number of ReadExReq hits
system.l2.ReadExReq_misses::.cpu.data         1315877                       # number of ReadExReq misses
system.l2.ReadExReq_misses::total             1315877                       # number of ReadExReq misses
system.l2.ReadExReq_miss_latency::.cpu.data 155263743500                       # number of ReadExReq miss cycles
system.l2.ReadExReq_miss_latency::total  155263743500                       # number of ReadExReq miss cycles
system.l2.ReadExReq_accesses::.cpu.data       1315890                       # number of ReadExReq accesses(hits+misses)
system.l2.ReadExReq_accesses::total           1315890                       # number of ReadExReq accesses(hits+misses)
system.l2.ReadExReq_miss_rate::.cpu.data     0.999990                       # miss rate for ReadExReq accesses
system.l2.ReadExReq_miss_rate::total         0.999990                       # miss rate for ReadExReq accesses
system.l2.ReadExReq_avg_miss_latency::.cpu.data 117992.596193                       # average ReadExReq miss latency
system.l2.ReadExReq_avg_miss_latency::total 117992.596193                       # average ReadExReq miss latency
system.l2.ReadExReq_mshr_misses::.cpu.data      1315877                       # number of ReadExReq MSHR misses
system.l2.ReadExReq_mshr_misses::total        1315877                       # number of ReadExReq MSHR misses
system.l2.ReadExReq_mshr_miss_latency::.cpu.data 142104973500                       # number of ReadExReq MSHR miss cycles
system.l2.ReadExReq_mshr_miss_latency::total 142104973500                       # number of ReadExReq MSHR miss cycles
system.l2.ReadExReq_mshr_miss_rate::.cpu.data     0.999990                       # mshr miss rate for ReadExReq accesses
system.l2.ReadExReq_mshr_miss_rate::total     0.999990                       # mshr miss rate for ReadExReq accesses
system.l2.ReadExReq_avg_mshr_miss_latency::.cpu.data 107992.596193                       # average ReadExReq mshr miss latency
system.l2.ReadExReq_avg_mshr_miss_latency::total 107992.596193                       # average ReadExReq mshr miss latency
system.l2.ReadCleanReq_hits::.cpu.inst             91                       # number of ReadCleanReq hits
system.l2.ReadCleanReq_hits::total                 91                       # number of ReadCleanReq hits
system.l2.ReadCleanReq_misses::.cpu.inst          271                       # number of ReadCleanReq misses
system.l2.ReadCleanReq_misses::total              271                       # number of ReadCleanReq misses
system.l2.ReadCleanReq_miss_latency::.cpu.inst     28362500                       # number of ReadCleanReq miss cycles
system.l2.ReadCleanReq_miss_latency::total     28362500                       # number of ReadCleanReq miss cycles
system.l2.ReadCleanReq_accesses::.cpu.inst          362                       # number of ReadCleanReq accesses(hits+misses)
system.l2.ReadCleanReq_accesses::total            362                       # number of ReadCleanReq accesses(hits+misses)
system.l2.ReadCleanReq_miss_rate::.cpu.inst     0.748619                       # miss rate for ReadCleanReq accesses
system.l2.ReadCleanReq_miss_rate::total      0.748619                       # miss rate for ReadCleanReq accesses
system.l2.ReadCleanReq_avg_miss_latency::.cpu.inst 104658.671587                       # average ReadCleanReq miss latency
system.l2.ReadCleanReq_avg_miss_latency::total 104658.671587                       # average ReadCleanReq miss latency
system.l2.ReadCleanReq_mshr_misses::.cpu.inst          271                       # number of ReadCleanReq MSHR misses
system.l2.ReadCleanReq_mshr_misses::total          271                       # number of ReadCleanReq MSHR misses
system.l2.ReadCleanReq_mshr_miss_latency::.cpu.inst     25652500                       # number of ReadCleanReq MSHR miss cycles
system.l2.ReadCleanReq_mshr_miss_latency::total     25652500                       # number of ReadCleanReq MSHR miss cycles
system.l2.ReadCleanReq_mshr_miss_rate::.cpu.inst     0.748619                       # mshr miss rate for ReadCleanReq accesses
system.l2.ReadCleanReq_mshr_miss_rate::total     0.748619                       # mshr miss rate for ReadCleanReq accesses
system.l2.ReadCleanReq_avg_mshr_miss_latency::.cpu.inst 94658.671587                       # average ReadCleanReq mshr miss latency
system.l2.ReadCleanReq_avg_mshr_miss_latency::total 94658.671587                       # average ReadCleanReq mshr miss latency
system.l2.ReadSharedReq_hits::.cpu.data            40                       # number of ReadSharedReq hits
system.l2.ReadSharedReq_hits::total                40                       # number of ReadSharedReq hits
system.l2.ReadSharedReq_misses::.cpu.data          155                       # number of ReadSharedReq misses
system.l2.ReadSharedReq_misses::total             155                       # number of ReadSharedReq misses
system.l2.ReadSharedReq_miss_latency::.cpu.data     16825000                       # number of ReadSharedReq miss cycles
system.l2.ReadSharedReq_miss_latency::total     16825000                       # number of ReadSharedReq miss cycles
system.l2.ReadSharedReq_accesses::.cpu.data          195                       # number of ReadSharedReq accesses(hits+misses)
system.l2.ReadSharedReq_accesses::total           195                       # number of ReadSharedReq accesses(hits+misses)
system.l2.ReadSharedReq_miss_rate::.cpu.data     0.794872                       # miss rate for ReadSharedReq accesses
system.l2.ReadSharedReq_miss_rate::total     0.794872                       # miss rate for ReadSharedReq accesses
system.l2.ReadSharedReq_avg_miss_latency::.cpu.data 108548.387097                       # average ReadSharedReq miss latency
system.l2.ReadSharedReq_avg_miss_latency::total 108548.387097                       # average ReadSharedReq miss latency
system.l2.ReadSharedReq_mshr_hits::.cpu.data            7                       # number of ReadSharedReq MSHR hits
system.l2.ReadSharedReq_mshr_hits::total            7                       # number of ReadSharedReq MSHR hits
system.l2.ReadSharedReq_mshr_misses::.cpu.data          148                       # number of ReadSharedReq MSHR misses
system.l2.ReadSharedReq_mshr_misses::total          148                       # number of ReadSharedReq MSHR misses
system.l2.ReadSharedReq_mshr_miss_latency::.cpu.data     14769000                       # number of ReadSharedReq MSHR miss cycles
system.l2.ReadSharedReq_mshr_miss_latency::total     14769000                       # number of ReadSharedReq MSHR miss cycles
system.l2.ReadSharedReq_mshr_miss_rate::.cpu.data     0.758974                       # mshr miss rate for ReadSharedReq accesses
system.l2.ReadSharedReq_mshr_miss_rate::total     0.758974                       # mshr miss rate for ReadSharedReq accesses
system.l2.ReadSharedReq_avg_mshr_miss_latency::.cpu.data 99790.540541                       # average ReadSharedReq mshr miss latency
system.l2.ReadSharedReq_avg_mshr_miss_latency::total 99790.540541                       # average ReadSharedReq mshr miss latency
system.l2.tags.pwrStateResidencyTicks::UNDEFINED 258777987500                       # Cumulative time (in ticks) in various power states
system.l2.tags.tagsinuse                  8090.026763                       # Cycle average of tags in use
system.l2.tags.total_refs                     2632450                       # Total number of references to valid blocks.
system.l2.tags.sampled_refs                   1316367                       # Sample count of references to valid blocks.
system.l2.tags.avg_refs                      1.999784                       # Average number of references to valid blocks.
system.l2.tags.warmup_cycle                     92000                       # Cycle when the warmup percentage was hit.
system.l2.tags.occ_blocks::.writebacks       0.401192                       # Average occupied blocks per requestor
system.l2.tags.occ_blocks::.cpu.inst         3.261254                       # Average occupied blocks per requestor
system.l2.tags.occ_blocks::.cpu.data      8086.364316                       # Average occupied blocks per requestor
system.l2.tags.occ_percent::.writebacks      0.000049                       # Average percentage of cache occupancy
system.l2.tags.occ_percent::.cpu.inst        0.000398                       # Average percentage of cache occupancy
system.l2.tags.occ_percent::.cpu.data        0.987105                       # Average percentage of cache occupancy
system.l2.tags.occ_percent::total            0.987552                       # Average percentage of cache occupancy
system.l2.tags.occ_task_id_blocks::1024          8192                       # Occupied blocks per task id
system.l2.tags.age_task_id_blocks_1024::0           51                       # Occupied blocks per task id
system.l2.tags.age_task_id_blocks_1024::1          463                       # Occupied blocks per task id
system.l2.tags.age_task_id_blocks_1024::2         4623                       # Occupied blocks per task id
system.l2.tags.age_task_id_blocks_1024::3         3055                       # Occupied blocks per task id
system.l2.tags.occ_task_id_percent::1024            1                       # Percentage of cache occupancy per task id
system.l2.tags.tag_accesses                  22376023                       # Number of tag accesses
system.l2.tags.data_accesses                 22376023                       # Number of data accesses
system.cpu_voltage_domain.voltage                   1                       # Voltage in Volts
system.mem_ctrls.pwrStateResidencyTicks::UNDEFINED 258777987500                       # Cumulative time (in ticks) in various power states
system.mem_ctrls.bytes_read::.cpu.inst          69376                       # Number of bytes read from this memory
system.mem_ctrls.bytes_read::.cpu.data      336902400                       # Number of bytes read from this memory
system.mem_ctrls.bytes_read::total          336971776                       # Number of bytes read from this memory
system.mem_ctrls.bytes_inst_read::.cpu.inst        69376                       # Number of instructions bytes read from this memory
system.mem_ctrls.bytes_inst_read::total         69376                       # Number of instructions bytes read from this memory
system.mem_ctrls.bytes_written::.writebacks    334772480                       # Number of bytes written to this memory
system.mem_ctrls.bytes_written::total       334772480                       # Number of bytes written to this memory
system.mem_ctrls.num_reads::.cpu.inst             271                       # Number of read requests responded to by this memory
system.mem_ctrls.num_reads::.cpu.data         1316025                       # Number of read requests responded to by this memory
system.mem_ctrls.num_reads::total             1316296                       # Number of read requests responded to by this memory
system.mem_ctrls.num_writes::.writebacks      1307705                       # Number of write requests responded to by this memory
system.mem_ctrls.num_writes::total            1307705                       # Number of write requests responded to by this memory
system.mem_ctrls.bw_read::.cpu.inst            268091                       # Total read bandwidth from this memory (bytes/s)
system.mem_ctrls.bw_read::.cpu.data        1301897442                       # Total read bandwidth from this memory (bytes/s)
system.mem_ctrls.bw_read::total            1302165533                       # Total read bandwidth from this memory (bytes/s)
system.mem_ctrls.bw_inst_read::.cpu.inst       268091                       # Instruction read bandwidth from this memory (bytes/s)
system.mem_ctrls.bw_inst_read::total           268091                       # Instruction read bandwidth from this memory (bytes/s)
system.mem_ctrls.bw_write::.writebacks     1293666757                       # Write bandwidth from this memory (bytes/s)
system.mem_ctrls.bw_write::total           1293666757                       # Write bandwidth from this memory (bytes/s)
system.mem_ctrls.bw_total::.writebacks     1293666757                       # Total bandwidth to/from this memory (bytes/s)
system.mem_ctrls.bw_total::.cpu.inst           268091                       # Total bandwidth to/from this memory (bytes/s)
system.mem_ctrls.bw_total::.cpu.data       1301897442                       # Total bandwidth to/from this memory (bytes/s)
system.mem_ctrls.bw_total::total           2595832290                       # Total bandwidth to/from this memory (bytes/s)
system.mem_ctrls.avgPriority_.writebacks::samples   5230820.00                       # Average QoS priority value for accepted requests
system.mem_ctrls.avgPriority_.cpu.inst::samples      1084.00                       # Average QoS priority value for accepted requests
system.mem_ctrls.avgPriority_.cpu.data::samples   5264100.00                       # Average QoS priority value for accepted requests
system.mem_ctrls.priorityMinLatency      0.000000018750                       # per QoS priority minimum request to response latency (s)
system.mem_ctrls.priorityMaxLatency      0.000381788750                       # per QoS priority maximum request to response latency (s)
system.mem_ctrls.numReadWriteTurnArounds       286067                       # Number of turnarounds from READ to WRITE
system.mem_ctrls.numWriteReadTurnArounds       286067                       # Number of turnarounds from WRITE to READ
system.mem_ctrls.numStayReadState             7684487                       # Number of times bus staying in READ state
system.mem_ctrls.numStayWriteState            4967490                       # Number of times bus staying in WRITE state
system.mem_ctrls.readReqs                     1316296                       # Number of read requests accepted
system.mem_ctrls.writeReqs                    1307705                       # Number of write requests accepted
system.mem_ctrls.readBursts                   5265184                       # Number of DRAM read bursts, including those serviced by the write queue
system.mem_ctrls.writeBursts                  5230820                       # Number of DRAM write bursts, including those merged in the write queue
system.mem_ctrls.servicedByWrQ                      0                       # Number of DRAM read bursts serviced by the write queue
system.mem_ctrls.mergedWrBursts                     0                       # Number of DRAM write bursts merged with an existing one
system.mem_ctrls.neitherReadNorWriteReqs            0                       # Number of requests that are neither read nor write
system.mem_ctrls.perBankRdBursts::0            329160                       # Per bank write bursts
system.mem_ctrls.perBankRdBursts::1            329176                       # Per bank write bursts
system.mem_ctrls.perBankRdBursts::2            329216                       # Per bank write bursts
system.mem_ctrls.perBankRdBursts::3            329148                       # Per bank write bursts
system.mem_ctrls.perBankRdBursts::4            329060                       # Per bank write bursts
system.mem_ctrls.perBankRdBursts::5            329136                       # Per bank write bursts
system.mem_ctrls.perBankRdBursts::6            329164                       # Per bank write bursts
system.mem_ctrls.perBankRdBursts::7            328984                       # Per bank write bursts
system.mem_ctrls.perBankRdBursts::8            328924                       # Per bank write bursts
system.mem_ctrls.perBankRdBursts::9            328924                       # Per bank write bursts
system.mem_ctrls.perBankRdBursts::10           328892                       # Per bank write bursts
system.mem_ctrls.perBankRdBursts::11           329120                       # Per bank write bursts
system.mem_ctrls.perBankRdBursts::12           329124                       # Per bank write bursts
system.mem_ctrls.perBankRdBursts::13           329104                       # Per bank write bursts
system.mem_ctrls.perBankRdBursts::14           329120                       # Per bank write bursts
system.mem_ctrls.perBankRdBursts::15           328932                       # Per bank write bursts
system.mem_ctrls.perBankWrBursts::0            326896                       # Per bank write bursts
system.mem_ctrls.perBankWrBursts::1            326987                       # Per bank write bursts
system.mem_ctrls.perBankWrBursts::2            327084                       # Per bank write bursts
system.mem_ctrls.perBankWrBursts::3            327036                       # Per bank write bursts
system.mem_ctrls.perBankWrBursts::4            326992                       # Per bank write bursts
system.mem_ctrls.perBankWrBursts::5            327008                       # Per bank write bursts
system.mem_ctrls.perBankWrBursts::6            327016                       # Per bank write bursts
system.mem_ctrls.perBankWrBursts::7            326896                       # Per bank write bursts
system.mem_ctrls.perBankWrBursts::8            326784                       # Per bank write bursts
system.mem_ctrls.perBankWrBursts::9            326784                       # Per bank write bursts
system.mem_ctrls.perBankWrBursts::10           326720                       # Per bank write bursts
system.mem_ctrls.perBankWrBursts::11           326968                       # Per bank write bursts
system.mem_ctrls.perBankWrBursts::12           326960                       # Per bank write bursts
system.mem_ctrls.perBankWrBursts::13           326940                       # Per bank write bursts
system.mem_ctrls.perBankWrBursts::14           326896                       # Per bank write bursts
system.mem_ctrls.perBankWrBursts::15           326828                       # Per bank write bursts
system.mem_ctrls.avgRdQLen                       4.04                       # Average read queue length when enqueuing
system.mem_ctrls.avgWrQLen                      27.71                       # Average write queue length when enqueuing
system.mem_ctrls.totQLat                 215641666000                       # Total ticks spent queuing
system.mem_ctrls.totBusLat                26325920000                       # Total ticks spent in databus transfers
system.mem_ctrls.totMemAccLat            314363866000                       # Total ticks spent from burst creation until serviced by the DRAM
system.mem_ctrls.avgQLat                     40956.15                       # Average queueing delay per DRAM burst
system.mem_ctrls.avgBusLat                    5000.00                       # Average bus latency per DRAM burst
system.mem_ctrls.avgMemAccLat                59706.15                       # Average memory access latency per DRAM burst
system.mem_ctrls.numRdRetry                         0                       # Number of times read queue was full causing retry
system.mem_ctrls.numWrRetry                         0                       # Number of times write queue was full causing retry
system.mem_ctrls.readRowHits                  4762008                       # Number of row buffer hits during reads
system.mem_ctrls.writeRowHits                 4656956                       # Number of row buffer hits during writes
system.mem_ctrls.readRowHitRate                 90.44                       # Row buffer hit rate for reads
system.mem_ctrls.writeRowHitRate                89.03                       # Row buffer hit rate for writes
system.mem_ctrls.readPktSize::0                     0                       # Read request sizes (log2)
system.mem_ctrls.readPktSize::1                     0                       # Read request sizes (log2)
system.mem_ctrls.readPktSize::2                     0                       # Read request sizes (log2)
system.mem_ctrls.readPktSize::3                     0                       # Read request sizes (log2)
system.mem_ctrls.readPktSize::4                     0                       # Read request sizes (log2)
system.mem_ctrls.readPktSize::5                     0                       # Read request sizes (log2)
system.mem_ctrls.readPktSize::6               5265184                       # Read request sizes (log2)
system.mem_ctrls.writePktSize::0                    0                       # Write request sizes (log2)
system.mem_ctrls.writePktSize::1                    0                       # Write request sizes (log2)
system.mem_ctrls.writePktSize::2                    0                       # Write request sizes (log2)
system.mem_ctrls.writePktSize::3                    0                       # Write request sizes (log2)
system.mem_ctrls.writePktSize::4                    0                       # Write request sizes (log2)
system.mem_ctrls.writePktSize::5                    0                       # Write request sizes (log2)
system.mem_ctrls.writePktSize::6              5230820                       # Write request sizes (log2)
system.mem_ctrls.rdQLenPdf::0                 1315986                       # What read queue length does an incoming req see
system.mem_ctrls.rdQLenPdf::1                 1315987                       # What read queue length does an incoming req see
system.mem_ctrls.rdQLenPdf::2                 1315989                       # What read queue length does an incoming req see
system.mem_ctrls.rdQLenPdf::3                 1315991                       # What read queue length does an incoming req see
system.mem_ctrls.rdQLenPdf::4                     305                       # What read queue length does an incoming req see
system.mem_ctrls.rdQLenPdf::5                     304                       # What read queue length does an incoming req see
system.mem_ctrls.rdQLenPdf::6                     303                       # What read queue length does an incoming req see
system.mem_ctrls.rdQLenPdf::7                     302                       # What read queue length does an incoming req see
system.mem_ctrls.rdQLenPdf::8                       5                       # What read queue length does an incoming req see
system.mem_ctrls.rdQLenPdf::9                       5                       # What read queue length does an incoming req see
system.mem_ctrls.rdQLenPdf::10                      4                       # What read queue length does an incoming req see
system.mem_ctrls.rdQLenPdf::11                      3                       # What read queue length does an incoming req see
system.mem_ctrls.rdQLenPdf::12                      0                       # What read queue length does an incoming req see
system.mem_ctrls.rdQLenPdf::13                      0                       # What read queue length does an incoming req see
system.mem_ctrls.rdQLenPdf::14                      0                       # What read queue length does an incoming req see
system.mem_ctrls.rdQLenPdf::15                      0                       # What read queue length does an incoming req see
system.mem_ctrls.rdQLenPdf::16                      0                       # What read queue length does an incoming req see
system.mem_ctrls.rdQLenPdf::17                      0                       # What read queue length does an incoming req see
system.mem_ctrls.rdQLenPdf::18                      0                       # What read queue length does an incoming req see
system.mem_ctrls.rdQLenPdf::19                      0                       # What read queue length does an incoming req see
system.mem_ctrls.rdQLenPdf::20                      0                       # What read queue length does an incoming req see
system.mem_ctrls.rdQLenPdf::21                      0                       # What read queue length does an incoming req see
system.mem_ctrls.rdQLenPdf::22                      0                       # What read queue length does an incoming req see
system.mem_ctrls.rdQLenPdf::23                      0                       # What read queue length does an incoming req see
system.mem_ctrls.rdQLenPdf::24                      0                       # What read queue length does an incoming req see
system.mem_ctrls.rdQLenPdf::25                      0                       # What read queue length does an incoming req see
system.mem_ctrls.rdQLenPdf::26                      0                       # What read queue length does an incoming req see
system.mem_ctrls.rdQLenPdf::27                      0                       # What read queue length does an incoming req see
system.mem_ctrls.rdQLenPdf::28                      0                       # What read queue length does an incoming req see
system.mem_ctrls.rdQLenPdf::29                      0                       # What read queue length does an incoming req see
system.mem_ctrls.rdQLenPdf::30                      0                       # What read queue length does an incoming req see
system.mem_ctrls.rdQLenPdf::31                      0                       # What read queue length does an incoming req see
system.mem_ctrls.wrQLenPdf::0                       1                       # What write queue length does an incoming req see
system.mem_ctrls.wrQLenPdf::1                       1                       # What write queue length does an incoming req see
system.mem_ctrls.wrQLenPdf::2                       1                       # What write queue length does an incoming req see
system.mem_ctrls.wrQLenPdf::3                       1                       # What write queue length does an incoming req see
system.mem_ctrls.wrQLenPdf::4                       1                       # What write queue length does an incoming req see
system.mem_ctrls.wrQLenPdf::5                       1                       # What write queue length does an incoming req see
system.mem_ctrls.wrQLenPdf::6                       1                       # What write queue length does an incoming req see
system.mem_ctrls.wrQLenPdf::7                       1                       # What write queue length does an incoming req see
system.mem_ctrls.wrQLenPdf::8                       1                       # What write queue length does an incoming req see
system.mem_ctrls.wrQLenPdf::9                       1                       # What write queue length does an incoming req see
system.mem_ctrls.wrQLenPdf::10                      1                       # What write queue length does an incoming req see
system.mem_ctrls.wrQLenPdf::11                      1                       # What write queue length does an incoming req see
system.mem_ctrls.wrQLenPdf::12                      1                       # What write queue length does an incoming req see
system.mem_ctrls.wrQLenPdf::13                      1                       # What write queue length does an incoming req see
system.mem_ctrls.wrQLenPdf::14                      1                       # What write queue length does an incoming req see
system.mem_ctrls.wrQLenPdf::15                 157663                       # What write queue length does an incoming req see
system.mem_ctrls.wrQLenPdf::16                 162704                       # What write queue length does an incoming req see
system.mem_ctrls.wrQLenPdf::17                 279006                       # What write queue length does an incoming req see
system.mem_ctrls.wrQLenPdf::18                 279245                       # What write queue length does an incoming req see
system.mem_ctrls.wrQLenPdf::19                 286664                       # What write queue length does an incoming req see
system.mem_ctrls.wrQLenPdf::20                 286710                       # What write queue length does an incoming req see
system.mem_ctrls.wrQLenPdf::21                 286735                       # What write queue length does an incoming req see
system.mem_ctrls.wrQLenPdf::22                 286746                       # What write queue length does an incoming req see
system.mem_ctrls.wrQLenPdf::23                 286089                       # What write queue length does an incoming req see
system.mem_ctrls.wrQLenPdf::24                 286121                       # What write queue length does an incoming req see
system.mem_ctrls.wrQLenPdf::25                 286133                       # What write queue length does an incoming req see
system.mem_ctrls.wrQLenPdf::26                 286127                       # What write queue length does an incoming req see
system.mem_ctrls.wrQLenPdf::27                 286120                       # What write queue length does an incoming req see
system.mem_ctrls.wrQLenPdf::28                 286095                       # What write queue length does an incoming req see
system.mem_ctrls.wrQLenPdf::29                 286086                       # What write queue length does an incoming req see
system.mem_ctrls.wrQLenPdf::30                 286083                       # What write queue length does an incoming req see
system.mem_ctrls.wrQLenPdf::31                 286078                       # What write queue length does an incoming req see
system.mem_ctrls.wrQLenPdf::32                 286071                       # What write queue length does an incoming req see
system.mem_ctrls.wrQLenPdf::33                 169741                       # What write queue length does an incoming req see
system.mem_ctrls.wrQLenPdf::34                 169500                       # What write queue length does an incoming req see
system.mem_ctrls.wrQLenPdf::35                   5088                       # What write queue length does an incoming req see
system.mem_ctrls.wrQLenPdf::36                      0                       # What write queue length does an incoming req see
system.mem_ctrls.wrQLenPdf::37                      0                       # What write queue length does an incoming req see
system.mem_ctrls.wrQLenPdf::38                      0                       # What write queue length does an incoming req see
system.mem_ctrls.wrQLenPdf::39                      0                       # What write queue length does an incoming req see
system.mem_ctrls.wrQLenPdf::40                      0                       # What write queue length does an incoming req see
system.mem_ctrls.wrQLenPdf::41                      0                       # What write queue length does an incoming req see
system.mem_ctrls.wrQLenPdf::42                      0                       # What write queue length does an incoming req see
system.mem_ctrls.wrQLenPdf::43                      0                       # What write queue length does an incoming req see
system.mem_ctrls.wrQLenPdf::44                      0                       # What write queue length does an incoming req see
system.mem_ctrls.wrQLenPdf::45                      0                       # What write queue length does an incoming req see
system.mem_ctrls.wrQLenPdf::46                      0                       # What write queue length does an incoming req see
system.mem_ctrls.wrQLenPdf::47                      0                       # What write queue length does an incoming req see
system.mem_ctrls.wrQLenPdf::48                      0                       # What write queue length does an incoming req see
system.mem_ctrls.wrQLenPdf::49                      0                       # What write queue length does an incoming req see
system.mem_ctrls.wrQLenPdf::50                      0                       # What write queue length does an incoming req see
system.mem_ctrls.wrQLenPdf::51                      0                       # What write queue length does an incoming req see
system.mem_ctrls.wrQLenPdf::52                      0                       # What write queue length does an incoming req see
system.mem_ctrls.wrQLenPdf::53                      0                       # What write queue length does an incoming req see
system.mem_ctrls.wrQLenPdf::54                      0                       # What write queue length does an incoming req see
system.mem_ctrls.wrQLenPdf::55                      0                       # What write queue length does an incoming req see
system.mem_ctrls.wrQLenPdf::56                      0                       # What write queue length does an incoming req see
system.mem_ctrls.wrQLenPdf::57                      0                       # What write queue length does an incoming req see
system.mem_ctrls.wrQLenPdf::58                      0                       # What write queue length does an incoming req see
system.mem_ctrls.wrQLenPdf::59                      0                       # What write queue length does an incoming req see
system.mem_ctrls.wrQLenPdf::60                      0                       # What write queue length does an incoming req see
system.mem_ctrls.wrQLenPdf::61                      0                       # What write queue length does an incoming req see
system.mem_ctrls.wrQLenPdf::62                      0                       # What write queue length does an incoming req see
system.mem_ctrls.wrQLenPdf::63                      0                       # What write queue length does an incoming req see
system.mem_ctrls.bytesPerActivate::samples      1077014                       # Bytes accessed per row activation
system.mem_ctrls.bytesPerActivate::mean    623.707904                       # Bytes accessed per row activation
system.mem_ctrls.bytesPerActivate::gmean   462.329655                       # Bytes accessed per row activation
system.mem_ctrls.bytesPerActivate::stdev   391.569098                       # Bytes accessed per row activation
system.mem_ctrls.bytesPerActivate::0-127         3431      0.32%      0.32% # Bytes accessed per row activation
system.mem_ctrls.bytesPerActivate::128-255       236647     21.97%     22.29% # Bytes accessed per row activation
system.mem_ctrls.bytesPerActivate::256-383       199267     18.50%     40.79% # Bytes accessed per row activation
system.mem_ctrls.bytesPerActivate::384-511        24225      2.25%     43.04% # Bytes accessed per row activation
system.mem_ctrls.bytesPerActivate::512-639        61784      5.74%     48.78% # Bytes accessed per row activation
system.mem_ctrls.bytesPerActivate::640-767        17453      1.62%     50.40% # Bytes accessed per row activation
system.mem_ctrls.bytesPerActivate::768-895        52044      4.83%     55.23% # Bytes accessed per row activation
system.mem_ctrls.bytesPerActivate::896-1023        11452      1.06%     56.29% # Bytes accessed per row activation
system.mem_ctrls.bytesPerActivate::1024-1151       470711     43.71%    100.00% # Bytes accessed per row activation
system.mem_ctrls.bytesPerActivate::total      1077014                       # Bytes accessed per row activation
system.mem_ctrls.rdPerTurnAround::samples       286067                       # Reads before turning the bus around for writes
system.mem_ctrls.rdPerTurnAround::mean      18.405395                       # Reads before turning the bus around for writes
system.mem_ctrls.rdPerTurnAround::gmean     18.178494                       # Reads before turning the bus around for writes
system.mem_ctrls.rdPerTurnAround::stdev     53.956463                       # Reads before turning the bus around for writes
system.mem_ctrls.rdPerTurnAround::0-1023       286066    100.00%    100.00% # Reads before turning the bus around for writes
system.mem_ctrls.rdPerTurnAround::28672-29695            1      0.00%    100.00% # Reads before turning the bus around for writes
system.mem_ctrls.rdPerTurnAround::total        286067                       # Reads before turning the bus around for writes
system.mem_ctrls.wrPerTurnAround::samples       286067                       # Writes before turning the bus around for reads
system.mem_ctrls.wrPerTurnAround::mean      18.285209                       # Writes before turning the bus around for reads
system.mem_ctrls.wrPerTurnAround::gmean     18.264870                       # Writes before turning the bus around for reads
system.mem_ctrls.wrPerTurnAround::stdev      0.882102                       # Writes before turning the bus around for reads
system.mem_ctrls.wrPerTurnAround::16             7027      2.46%      2.46% # Writes before turning the bus around for reads
system.mem_ctrls.wrPerTurnAround::17               66      0.02%      2.48% # Writes before turning the bus around for reads
system.mem_ctrls.wrPerTurnAround::18           232471     81.26%     83.74% # Writes before turning the bus around for reads
[...]
system.cpu.icache.ReadReq_miss_rate::.cpu.inst     0.000011                       # miss rate for ReadReq accesses
system.cpu.icache.ReadReq_miss_rate::total     0.000011                       # miss rate for ReadReq accesses
system.cpu.icache.ReadReq_avg_miss_latency::.cpu.inst 84211.325967                       # average ReadReq miss latency
system.cpu.icache.ReadReq_avg_miss_latency::total 84211.325967                       # average ReadReq miss latency
system.cpu.icache.ReadReq_mshr_misses::.cpu.inst          362                       # number of ReadReq MSHR misses
system.cpu.icache.ReadReq_mshr_misses::total          362                       # number of ReadReq MSHR misses
system.cpu.icache.ReadReq_mshr_miss_latency::.cpu.inst     30122500                       # number of ReadReq MSHR miss cycles
system.cpu.icache.ReadReq_mshr_miss_latency::total     30122500                       # number of ReadReq MSHR miss cycles
system.cpu.icache.ReadReq_mshr_miss_rate::.cpu.inst     0.000011                       # mshr miss rate for ReadReq accesses
system.cpu.icache.ReadReq_mshr_miss_rate::total     0.000011                       # mshr miss rate for ReadReq accesses
system.cpu.icache.ReadReq_avg_mshr_miss_latency::.cpu.inst 83211.325967                       # average ReadReq mshr miss latency
system.cpu.icache.ReadReq_avg_mshr_miss_latency::total 83211.325967                       # average ReadReq mshr miss latency
system.cpu.icache.tags.pwrStateResidencyTicks::UNDEFINED 258777987500                       # Cumulative time (in ticks) in various power states
system.cpu.icache.tags.tagsinuse           124.790599                       # Cycle average of tags in use
system.cpu.icache.tags.total_refs            31734293                       # Total number of references to valid blocks.
system.cpu.icache.tags.sampled_refs               362                       # Sample count of references to valid blocks.
system.cpu.icache.tags.avg_refs          87663.792818                       # Average number of references to valid blocks.
system.cpu.icache.tags.warmup_cycle            102500                       # Cycle when the warmup percentage was hit.
system.cpu.icache.tags.occ_blocks::.cpu.inst   124.790599                       # Average occupied blocks per requestor
system.cpu.icache.tags.occ_percent::.cpu.inst     0.974927                       # Average percentage of cache occupancy
system.cpu.icache.tags.occ_percent::total     0.974927                       # Average percentage of cache occupancy
system.cpu.icache.tags.occ_task_id_blocks::1024          127                       # Occupied blocks per task id
system.cpu.icache.tags.age_task_id_blocks_1024::4          127                       # Occupied blocks per task id
system.cpu.icache.tags.occ_task_id_percent::1024     0.992188                       # Percentage of cache occupancy per task id
system.cpu.icache.tags.tag_accesses          63468948                       # Number of tag accesses
system.cpu.icache.tags.data_accesses         63468948                       # Number of data accesses
system.cpu.dtb.walker.pwrStateResidencyTicks::UNDEFINED 258777987500                       # Cumulative time (in ticks) in various power states
system.cpu.dtb.stage2_mmu.stage2_tlb.walker.pwrStateResidencyTicks::UNDEFINED 258777987500                       # Cumulative time (in ticks) in various power states
system.cpu.dcache.pwrStateResidencyTicks::UNDEFINED 258777987500                       # Cumulative time (in ticks) in various power states
system.cpu.dcache.demand_hits::.cpu.data     83749402                       # number of demand (read+write) hits
system.cpu.dcache.demand_hits::total         83749402                       # number of demand (read+write) hits
system.cpu.dcache.overall_hits::.cpu.data     83749449                       # number of overall hits
system.cpu.dcache.overall_hits::total        83749449                       # number of overall hits
system.cpu.dcache.demand_misses::.cpu.data      2631213                       # number of demand (read+write) misses
system.cpu.dcache.demand_misses::total        2631213                       # number of demand (read+write) misses
system.cpu.dcache.overall_misses::.cpu.data      2631237                       # number of overall misses
system.cpu.dcache.overall_misses::total       2631237                       # number of overall misses
system.cpu.dcache.demand_miss_latency::.cpu.data 321644648500                       # number of demand (read+write) miss cycles
system.cpu.dcache.demand_miss_latency::total 321644648500                       # number of demand (read+write) miss cycles
system.cpu.dcache.overall_miss_latency::.cpu.data 321644648500                       # number of overall miss cycles
system.cpu.dcache.overall_miss_latency::total 321644648500                       # number of overall miss cycles
system.cpu.dcache.demand_accesses::.cpu.data     86380615                       # number of demand (read+write) accesses
system.cpu.dcache.demand_accesses::total     86380615                       # number of demand (read+write) accesses
system.cpu.dcache.overall_accesses::.cpu.data     86380686                       # number of overall (read+write) accesses
system.cpu.dcache.overall_accesses::total     86380686                       # number of overall (read+write) accesses
system.cpu.dcache.demand_miss_rate::.cpu.data     0.030461                       # miss rate for demand accesses
system.cpu.dcache.demand_miss_rate::total     0.030461                       # miss rate for demand accesses
system.cpu.dcache.overall_miss_rate::.cpu.data     0.030461                       # miss rate for overall accesses
system.cpu.dcache.overall_miss_rate::total     0.030461                       # miss rate for overall accesses
system.cpu.dcache.demand_avg_miss_latency::.cpu.data 122241.965398                       # average overall miss latency
system.cpu.dcache.demand_avg_miss_latency::total 122241.965398                       # average overall miss latency
system.cpu.dcache.overall_avg_miss_latency::.cpu.data 122240.850406                       # average overall miss latency
system.cpu.dcache.overall_avg_miss_latency::total 122240.850406                       # average overall miss latency
system.cpu.dcache.blocked_cycles::no_mshrs            0                       # number of cycles access was blocked
system.cpu.dcache.blocked_cycles::no_targets            0                       # number of cycles access was blocked
system.cpu.dcache.blocked::no_mshrs                 0                       # number of cycles access was blocked
system.cpu.dcache.blocked::no_targets               0                       # number of cycles access was blocked
system.cpu.dcache.avg_blocked_cycles::no_mshrs          nan                       # average number of cycles each access was blocked
system.cpu.dcache.avg_blocked_cycles::no_targets          nan                       # average number of cycles each access was blocked
system.cpu.dcache.writebacks::.writebacks      1315664                       # number of writebacks
system.cpu.dcache.writebacks::total           1315664                       # number of writebacks
system.cpu.dcache.demand_mshr_hits::.cpu.data      1315138                       # number of demand (read+write) MSHR hits
system.cpu.dcache.demand_mshr_hits::total      1315138                       # number of demand (read+write) MSHR hits
system.cpu.dcache.overall_mshr_hits::.cpu.data      1315138                       # number of overall MSHR hits
system.cpu.dcache.overall_mshr_hits::total      1315138                       # number of overall MSHR hits
system.cpu.dcache.demand_mshr_misses::.cpu.data      1316075                       # number of demand (read+write) MSHR misses
system.cpu.dcache.demand_mshr_misses::total      1316075                       # number of demand (read+write) MSHR misses
system.cpu.dcache.overall_mshr_misses::.cpu.data      1316085                       # number of overall MSHR misses
system.cpu.dcache.overall_mshr_misses::total      1316085                       # number of overall MSHR misses
system.cpu.dcache.demand_mshr_miss_latency::.cpu.data 157254216000                       # number of demand (read+write) MSHR miss cycles
system.cpu.dcache.demand_mshr_miss_latency::total 157254216000                       # number of demand (read+write) MSHR miss cycles
system.cpu.dcache.overall_mshr_miss_latency::.cpu.data 157255416000                       # number of overall MSHR miss cycles
system.cpu.dcache.overall_mshr_miss_latency::total 157255416000                       # number of overall MSHR miss cycles
system.cpu.dcache.demand_mshr_miss_rate::.cpu.data     0.015236                       # mshr miss rate for demand accesses
system.cpu.dcache.demand_mshr_miss_rate::total     0.015236                       # mshr miss rate for demand accesses
system.cpu.dcache.overall_mshr_miss_rate::.cpu.data     0.015236                       # mshr miss rate for overall accesses
system.cpu.dcache.overall_mshr_miss_rate::total     0.015236                       # mshr miss rate for overall accesses
system.cpu.dcache.demand_avg_mshr_miss_latency::.cpu.data 119487.275421                       # average overall mshr miss latency
system.cpu.dcache.demand_avg_mshr_miss_latency::total 119487.275421                       # average overall mshr miss latency
system.cpu.dcache.overall_avg_mshr_miss_latency::.cpu.data 119487.279317                       # average overall mshr miss latency
system.cpu.dcache.overall_avg_mshr_miss_latency::total 119487.279317                       # average overall mshr miss latency
system.cpu.dcache.replacements                1315829                       # number of replacements
system.cpu.dcache.ReadReq_hits::.cpu.data      2043825                       # number of ReadReq hits
system.cpu.dcache.ReadReq_hits::total         2043825                       # number of ReadReq hits
system.cpu.dcache.ReadReq_misses::.cpu.data          204                       # number of ReadReq misses
system.cpu.dcache.ReadReq_misses::total           204                       # number of ReadReq misses
system.cpu.dcache.ReadReq_miss_latency::.cpu.data     18334500                       # number of ReadReq miss cycles
system.cpu.dcache.ReadReq_miss_latency::total     18334500                       # number of ReadReq miss cycles
system.cpu.dcache.ReadReq_accesses::.cpu.data      2044029                       # number of ReadReq accesses(hits+misses)
system.cpu.dcache.ReadReq_accesses::total      2044029                       # number of ReadReq accesses(hits+misses)
system.cpu.dcache.ReadReq_miss_rate::.cpu.data     0.000100                       # miss rate for ReadReq accesses
system.cpu.dcache.ReadReq_miss_rate::total     0.000100                       # miss rate for ReadReq accesses
system.cpu.dcache.ReadReq_avg_miss_latency::.cpu.data        89875                       # average ReadReq miss latency
system.cpu.dcache.ReadReq_avg_miss_latency::total        89875                       # average ReadReq miss latency
system.cpu.dcache.ReadReq_mshr_hits::.cpu.data           19                       # number of ReadReq MSHR hits
system.cpu.dcache.ReadReq_mshr_hits::total           19                       # number of ReadReq MSHR hits
system.cpu.dcache.ReadReq_mshr_misses::.cpu.data          185                       # number of ReadReq MSHR misses
system.cpu.dcache.ReadReq_mshr_misses::total          185                       # number of ReadReq MSHR misses
system.cpu.dcache.ReadReq_mshr_miss_latency::.cpu.data     16487000                       # number of ReadReq MSHR miss cycles
system.cpu.dcache.ReadReq_mshr_miss_latency::total     16487000                       # number of ReadReq MSHR miss cycles
system.cpu.dcache.ReadReq_mshr_miss_rate::.cpu.data     0.000091                       # mshr miss rate for ReadReq accesses
system.cpu.dcache.ReadReq_mshr_miss_rate::total     0.000091                       # mshr miss rate for ReadReq accesses
system.cpu.dcache.ReadReq_avg_mshr_miss_latency::.cpu.data 89118.918919                       # average ReadReq mshr miss latency
system.cpu.dcache.ReadReq_avg_mshr_miss_latency::total 89118.918919                       # average ReadReq mshr miss latency
system.cpu.dcache.WriteReq_hits::.cpu.data     81705577                       # number of WriteReq hits
system.cpu.dcache.WriteReq_hits::total       81705577                       # number of WriteReq hits
system.cpu.dcache.WriteReq_misses::.cpu.data      2631009                       # number of WriteReq misses
system.cpu.dcache.WriteReq_misses::total      2631009                       # number of WriteReq misses
system.cpu.dcache.WriteReq_miss_latency::.cpu.data 321626314000                       # number of WriteReq miss cycles
system.cpu.dcache.WriteReq_miss_latency::total 321626314000                       # number of WriteReq miss cycles
system.cpu.dcache.WriteReq_accesses::.cpu.data     84336586                       # number of WriteReq accesses(hits+misses)
system.cpu.dcache.WriteReq_accesses::total     84336586                       # number of WriteReq accesses(hits+misses)
system.cpu.dcache.WriteReq_miss_rate::.cpu.data     0.031197                       # miss rate for WriteReq accesses
system.cpu.dcache.WriteReq_miss_rate::total     0.031197                       # miss rate for WriteReq accesses
system.cpu.dcache.WriteReq_avg_miss_latency::.cpu.data 122244.475028                       # average WriteReq miss latency
system.cpu.dcache.WriteReq_avg_miss_latency::total 122244.475028                       # average WriteReq miss latency
system.cpu.dcache.WriteReq_mshr_hits::.cpu.data      1315119                       # number of WriteReq MSHR hits
system.cpu.dcache.WriteReq_mshr_hits::total      1315119                       # number of WriteReq MSHR hits
system.cpu.dcache.WriteReq_mshr_misses::.cpu.data      1315890                       # number of WriteReq MSHR misses
system.cpu.dcache.WriteReq_mshr_misses::total      1315890                       # number of WriteReq MSHR misses
system.cpu.dcache.WriteReq_mshr_miss_latency::.cpu.data 157237729000                       # number of WriteReq MSHR miss cycles
system.cpu.dcache.WriteReq_mshr_miss_latency::total 157237729000                       # number of WriteReq MSHR miss cycles
system.cpu.dcache.WriteReq_mshr_miss_rate::.cpu.data     0.015603                       # mshr miss rate for WriteReq accesses
system.cpu.dcache.WriteReq_mshr_miss_rate::total     0.015603                       # mshr miss rate for WriteReq accesses
system.cpu.dcache.WriteReq_avg_mshr_miss_latency::.cpu.data 119491.544886                       # average WriteReq mshr miss latency
system.cpu.dcache.WriteReq_avg_mshr_miss_latency::total 119491.544886                       # average WriteReq mshr miss latency
system.cpu.dcache.SoftPFReq_hits::.cpu.data           47                       # number of SoftPFReq hits
system.cpu.dcache.SoftPFReq_hits::total            47                       # number of SoftPFReq hits
system.cpu.dcache.SoftPFReq_misses::.cpu.data           24                       # number of SoftPFReq misses
system.cpu.dcache.SoftPFReq_misses::total           24                       # number of SoftPFReq misses
system.cpu.dcache.SoftPFReq_accesses::.cpu.data           71                       # number of SoftPFReq accesses(hits+misses)
system.cpu.dcache.SoftPFReq_accesses::total           71                       # number of SoftPFReq accesses(hits+misses)
system.cpu.dcache.SoftPFReq_miss_rate::.cpu.data     0.338028                       # miss rate for SoftPFReq accesses
system.cpu.dcache.SoftPFReq_miss_rate::total     0.338028                       # miss rate for SoftPFReq accesses
system.cpu.dcache.SoftPFReq_mshr_misses::.cpu.data           10                       # number of SoftPFReq MSHR misses
system.cpu.dcache.SoftPFReq_mshr_misses::total           10                       # number of SoftPFReq MSHR misses
system.cpu.dcache.SoftPFReq_mshr_miss_latency::.cpu.data      1200000                       # number of SoftPFReq MSHR miss cycles
system.cpu.dcache.SoftPFReq_mshr_miss_latency::total      1200000                       # number of SoftPFReq MSHR miss cycles
system.cpu.dcache.SoftPFReq_mshr_miss_rate::.cpu.data     0.140845                       # mshr miss rate for SoftPFReq accesses
system.cpu.dcache.SoftPFReq_mshr_miss_rate::total     0.140845                       # mshr miss rate for SoftPFReq accesses
system.cpu.dcache.SoftPFReq_avg_mshr_miss_latency::.cpu.data       120000                       # average SoftPFReq mshr miss latency
system.cpu.dcache.SoftPFReq_avg_mshr_miss_latency::total       120000                       # average SoftPFReq mshr miss latency
system.cpu.dcache.LoadLockedReq_hits::.cpu.data           34                       # number of LoadLockedReq hits
system.cpu.dcache.LoadLockedReq_hits::total           34                       # number of LoadLockedReq hits
system.cpu.dcache.LoadLockedReq_accesses::.cpu.data           34                       # number of LoadLockedReq accesses(hits+misses)
system.cpu.dcache.LoadLockedReq_accesses::total           34                       # number of LoadLockedReq accesses(hits+misses)
system.cpu.dcache.StoreCondReq_hits::.cpu.data           34                       # number of StoreCondReq hits
system.cpu.dcache.StoreCondReq_hits::total           34                       # number of StoreCondReq hits
system.cpu.dcache.StoreCondReq_accesses::.cpu.data           34                       # number of StoreCondReq accesses(hits+misses)
system.cpu.dcache.StoreCondReq_accesses::total           34                       # number of StoreCondReq accesses(hits+misses)
system.cpu.dcache.tags.pwrStateResidencyTicks::UNDEFINED 258777987500                       # Cumulative time (in ticks) in various power states
system.cpu.dcache.tags.tagsinuse           255.942510                       # Cycle average of tags in use
system.cpu.dcache.tags.total_refs            85065602                       # Total number of references to valid blocks.
system.cpu.dcache.tags.sampled_refs           1316085                       # Sample count of references to valid blocks.
system.cpu.dcache.tags.avg_refs             64.635340                       # Average number of references to valid blocks.
system.cpu.dcache.tags.warmup_cycle            213500                       # Cycle when the warmup percentage was hit.
system.cpu.dcache.tags.occ_blocks::.cpu.data   255.942510                       # Average occupied blocks per requestor
system.cpu.dcache.tags.occ_percent::.cpu.data     0.999775                       # Average percentage of cache occupancy
system.cpu.dcache.tags.occ_percent::total     0.999775                       # Average percentage of cache occupancy
system.cpu.dcache.tags.occ_task_id_blocks::1024          256                       # Occupied blocks per task id
system.cpu.dcache.tags.age_task_id_blocks_1024::0           51                       # Occupied blocks per task id
system.cpu.dcache.tags.age_task_id_blocks_1024::1          205                       # Occupied blocks per task id
system.cpu.dcache.tags.occ_task_id_percent::1024            1                       # Percentage of cache occupancy per task id
system.cpu.dcache.tags.tag_accesses         346839101                       # Number of tag accesses
system.cpu.dcache.tags.data_accesses        346839101                       # Number of data accesses
system.cpu.itb.walker.pwrStateResidencyTicks::UNDEFINED 258777987500                       # Cumulative time (in ticks) in various power states
system.cpu.itb.stage2_mmu.stage2_tlb.walker.pwrStateResidencyTicks::UNDEFINED 258777987500                       # Cumulative time (in ticks) in various power states

---------- End Simulation Statistics   ----------
