
---------- Begin Simulation Statistics ----------
final_tick                                66747151000                       # Number of ticks from beginning of simulation (restored from checkpoints and never reset)
host_inst_rate                                 205533                       # Simulator instruction rate (inst/s)
host_mem_usage                                 683932                       # Number of bytes of host memory used
host_op_rate                                   224919                       # Simulator op (including micro ops) rate (op/s)
host_seconds                                   486.54                       # Real time elapsed on the host
host_tick_rate                              137187595                       # Simulator tick rate (ticks/s)
sim_freq                                 1000000000000                       # Frequency of simulated ticks
sim_insts                                   100000001                       # Number of instructions simulated
sim_ops                                     109431937                       # Number of ops (including micro ops) simulated
sim_seconds                                  0.066747                       # Number of seconds simulated
sim_ticks                                 66747151000                       # Number of ticks simulated
system.cpu.branchPred.BTBCorrect                    0                       # Number of correct BTB predictions (this stat may not work properly.
system.cpu.branchPred.BTBHitPct             87.606091                       # BTB Hit Percentage
system.cpu.branchPred.BTBHits                 8698944                       # Number of BTB hits
system.cpu.branchPred.BTBLookups              9929611                       # Number of BTB lookups
system.cpu.branchPred.RASInCorrect                348                       # Number of incorrect RAS predictions.
system.cpu.branchPred.condIncorrect            154852                       # Number of conditional branches incorrect
system.cpu.branchPred.condPredicted          16493217                       # Number of conditional branches predicted
system.cpu.branchPred.indirectHits             300027                       # Number of indirect target hits.
system.cpu.branchPred.indirectLookups          523194                       # Number of indirect predictor lookups.
system.cpu.branchPred.indirectMisses           223167                       # Number of indirect misses.
system.cpu.branchPred.lookups                20555737                       # Number of BP lookups
system.cpu.branchPred.usedRAS                 1050663                       # Number of times the RAS was used to get a target.
system.cpu.branchPredindirectMispredicted         1043                       # Number of mispredicted indirect branches.
system.cpu.committedInsts                   100000001                       # Number of instructions committed
system.cpu.committedOps                     109431937                       # Number of ops (including micro ops) committed
system.cpu.cpi                               1.334943                       # CPI: cycles per instruction
system.cpu.discardedOps                        719894                       # Number of ops (including micro ops) which were discarded before commit
system.cpu.dtb.accesses                             0                       # DTB accesses
system.cpu.dtb.align_faults                         0                       # Number of TLB faults due to alignment restrictions
system.cpu.dtb.domain_faults                        0                       # Number of TLB faults due to domain restrictions
system.cpu.dtb.flush_entries                        0                       # Number of entries that have been flushed from TLB
system.cpu.dtb.flush_tlb                            0                       # Number of times complete TLB was flushed
system.cpu.dtb.flush_tlb_asid                       0                       # Number of times TLB was flushed by ASID
system.cpu.dtb.flush_tlb_mva                        0                       # Number of times TLB was flushed by MVA
system.cpu.dtb.flush_tlb_mva_asid                   0                       # Number of times TLB was flushed by MVA & ASID
system.cpu.dtb.hits                                 0                       # DTB hits
system.cpu.dtb.inst_accesses                        0                       # ITB inst accesses
system.cpu.dtb.inst_hits                            0                       # ITB inst hits
system.cpu.dtb.inst_misses                          0                       # ITB inst misses
system.cpu.dtb.misses                               0                       # DTB misses
system.cpu.dtb.perms_faults                         0                       # Number of TLB faults due to permissions restrictions
system.cpu.dtb.prefetch_faults                      0                       # Number of TLB faults due to prefetch
system.cpu.dtb.read_accesses                        0                       # DTB read accesses
system.cpu.dtb.read_hits                            0                       # DTB read hits
system.cpu.dtb.read_misses                          0                       # DTB read misses
system.cpu.dtb.stage2_mmu.stage2_tlb.accesses            0                       # DTB accesses
system.cpu.dtb.stage2_mmu.stage2_tlb.align_faults            0                       # Number of TLB faults due to alignment restrictions
system.cpu.dtb.stage2_mmu.stage2_tlb.domain_faults            0                       # Number of TLB faults due to domain restrictions
system.cpu.dtb.stage2_mmu.stage2_tlb.flush_entries            0                       # Number of entries that have been flushed from TLB
system.cpu.dtb.stage2_mmu.stage2_tlb.flush_tlb            0                       # Number of times complete TLB was flushed
system.cpu.dtb.stage2_mmu.stage2_tlb.flush_tlb_asid            0                       # Number of times TLB was flushed by ASID
system.cpu.dtb.stage2_mmu.stage2_tlb.flush_tlb_mva            0                       # Number of times TLB was flushed by MVA
system.cpu.dtb.stage2_mmu.stage2_tlb.flush_tlb_mva_asid            0                       # Number of times TLB was flushed by MVA & ASID
system.cpu.dtb.stage2_mmu.stage2_tlb.hits            0                       # DTB hits
system.cpu.dtb.stage2_mmu.stage2_tlb.inst_accesses            0                       # ITB inst accesses
system.cpu.dtb.stage2_mmu.stage2_tlb.inst_hits            0                       # ITB inst hits
system.cpu.dtb.stage2_mmu.stage2_tlb.inst_misses            0                       # ITB inst misses
system.cpu.dtb.stage2_mmu.stage2_tlb.misses            0                       # DTB misses
system.cpu.dtb.stage2_mmu.stage2_tlb.perms_faults            0                       # Number of TLB faults due to permissions restrictions
system.cpu.dtb.stage2_mmu.stage2_tlb.prefetch_faults            0                       # Number of TLB faults due to prefetch
system.cpu.dtb.stage2_mmu.stage2_tlb.read_accesses            0                       # DTB read accesses
system.cpu.dtb.stage2_mmu.stage2_tlb.read_hits            0                       # DTB read hits
system.cpu.dtb.stage2_mmu.stage2_tlb.read_misses            0                       # DTB read misses
system.cpu.dtb.stage2_mmu.stage2_tlb.walker.walkRequestOrigin_Requested::Data            0                       # Table walker requests started/completed, data/inst
system.cpu.dtb.stage2_mmu.stage2_tlb.walker.walkRequestOrigin_Requested::Inst            0                       # Table walker requests started/completed, data/inst
system.cpu.dtb.stage2_mmu.stage2_tlb.walker.walkRequestOrigin_Requested::total            0                       # Table walker requests started/completed, data/inst
system.cpu.dtb.stage2_mmu.stage2_tlb.walker.walkRequestOrigin_Completed::Data            0                       # Table walker requests started/completed, data/inst
system.cpu.dtb.stage2_mmu.stage2_tlb.walker.walkRequestOrigin_Completed::Inst            0                       # Table walker requests started/completed, data/inst
system.cpu.dtb.stage2_mmu.stage2_tlb.walker.walkRequestOrigin_Completed::total            0                       # Table walker requests started/completed, data/inst
system.cpu.dtb.stage2_mmu.stage2_tlb.walker.walkRequestOrigin::total            0                       # Table walker requests started/completed, data/inst
system.cpu.dtb.stage2_mmu.stage2_tlb.walker.walks            0                       # Table walker walks requested
system.cpu.dtb.stage2_mmu.stage2_tlb.write_accesses            0                       # DTB write accesses
system.cpu.dtb.stage2_mmu.stage2_tlb.write_hits            0                       # DTB write hits
system.cpu.dtb.stage2_mmu.stage2_tlb.write_misses            0                       # DTB write misses
system.cpu.dtb.walker.walkRequestOrigin_Requested::Data            0                       # Table walker requests started/completed, data/inst
system.cpu.dtb.walker.walkRequestOrigin_Requested::Inst            0                       # Table walker requests started/completed, data/inst
system.cpu.dtb.walker.walkRequestOrigin_Requested::total            0                       # Table walker requests started/completed, data/inst
system.cpu.dtb.walker.walkRequestOrigin_Completed::Data            0                       # Table walker requests started/completed, data/inst
system.cpu.dtb.walker.walkRequestOrigin_Completed::Inst            0                       # Table walker requests started/completed, data/inst
system.cpu.dtb.walker.walkRequestOrigin_Completed::total            0                       # Table walker requests started/completed, data/inst
system.cpu.dtb.walker.walkRequestOrigin::total            0                       # Table walker requests started/completed, data/inst
system.cpu.dtb.walker.walks                         0                       # Table walker walks requested
system.cpu.dtb.write_accesses                       0                       # DTB write accesses
system.cpu.dtb.write_hits                           0                       # DTB write hits
system.cpu.dtb.write_misses                         0                       # DTB write misses
system.cpu.fetch2.amo_instructions                  0                       # Number of memory atomic instructions successfully decoded
system.cpu.fetch2.fp_instructions                   0                       # Number of floating point instructions successfully decoded
system.cpu.fetch2.int_instructions           49722096                       # Number of integer instructions successfully decoded
system.cpu.fetch2.load_instructions          17195258                       # Number of memory load instructions successfully decoded
system.cpu.fetch2.store_instructions          9989262                       # Number of memory store instructions successfully decoded
system.cpu.fetch2.vec_instructions                  0                       # Number of SIMD instructions successfully decoded
system.cpu.idleCycles                        15612317                       # Total number of cycles that the object has spent stopped
system.cpu.ipc                               0.749096                       # IPC: instructions per cycle
system.cpu.itb.accesses                             0                       # DTB accesses
system.cpu.itb.align_faults                         0                       # Number of TLB faults due to alignment restrictions
system.cpu.itb.domain_faults                        0                       # Number of TLB faults due to domain restrictions
system.cpu.itb.flush_entries                        0                       # Number of entries that have been flushed from TLB
system.cpu.itb.flush_tlb                            0                       # Number of times complete TLB was flushed
system.cpu.itb.flush_tlb_asid                       0                       # Number of times TLB was flushed by ASID
system.cpu.itb.flush_tlb_mva                        0                       # Number of times TLB was flushed by MVA
system.cpu.itb.flush_tlb_mva_asid                   0                       # Number of times TLB was flushed by MVA & ASID
system.cpu.itb.hits                                 0                       # DTB hits
system.cpu.itb.inst_accesses                        0                       # ITB inst accesses
system.cpu.itb.inst_hits                            0                       # ITB inst hits
system.cpu.itb.inst_misses                          0                       # ITB inst misses
system.cpu.itb.misses                               0                       # DTB misses
system.cpu.itb.perms_faults                         0                       # Number of TLB faults due to permissions restrictions
system.cpu.itb.prefetch_faults                      0                       # Number of TLB faults due to prefetch
system.cpu.itb.read_accesses                        0                       # DTB read accesses
system.cpu.itb.read_hits                            0                       # DTB read hits
system.cpu.itb.read_misses                          0                       # DTB read misses
system.cpu.itb.stage2_mmu.stage2_tlb.accesses            0                       # DTB accesses
system.cpu.itb.stage2_mmu.stage2_tlb.align_faults            0                       # Number of TLB faults due to alignment restrictions
system.cpu.itb.stage2_mmu.stage2_tlb.domain_faults            0                       # Number of TLB faults due to domain restrictions
system.cpu.itb.stage2_mmu.stage2_tlb.flush_entries            0                       # Number of entries that have been flushed from TLB
system.cpu.itb.stage2_mmu.stage2_tlb.flush_tlb            0                       # Number of times complete TLB was flushed
system.cpu.itb.stage2_mmu.stage2_tlb.flush_tlb_asid            0                       # Number of times TLB was flushed by ASID
system.cpu.itb.stage2_mmu.stage2_tlb.flush_tlb_mva            0                       # Number of times TLB was flushed by MVA
system.cpu.itb.stage2_mmu.stage2_tlb.flush_tlb_mva_asid            0                       # Number of times TLB was flushed by MVA & ASID
system.cpu.itb.stage2_mmu.stage2_tlb.hits            0                       # DTB hits
system.cpu.itb.stage2_mmu.stage2_tlb.inst_accesses            0                       # ITB inst accesses
system.cpu.itb.stage2_mmu.stage2_tlb.inst_hits            0                       # ITB inst hits
system.cpu.itb.stage2_mmu.stage2_tlb.inst_misses            0                       # ITB inst misses
system.cpu.itb.stage2_mmu.stage2_tlb.misses            0                       # DTB misses
system.cpu.itb.stage2_mmu.stage2_tlb.perms_faults            0                       # Number of TLB faults due to permissions restrictions
system.cpu.itb.stage2_mmu.stage2_tlb.prefetch_faults            0                       # Number of TLB faults due to prefetch
system.cpu.itb.stage2_mmu.stage2_tlb.read_accesses            0                       # DTB read accesses
system.cpu.itb.stage2_mmu.stage2_tlb.read_hits            0                       # DTB read hits
system.cpu.itb.stage2_mmu.stage2_tlb.read_misses            0                       # DTB read misses
system.cpu.itb.stage2_mmu.stage2_tlb.walker.walkRequestOrigin_Requested::Data            0                       # Table walker requests started/completed, data/inst
system.cpu.itb.stage2_mmu.stage2_tlb.walker.walkRequestOrigin_Requested::Inst            0                       # Table walker requests started/completed, data/inst
system.cpu.itb.stage2_mmu.stage2_tlb.walker.walkRequestOrigin_Requested::total            0                       # Table walker requests started/completed, data/inst
system.cpu.itb.stage2_mmu.stage2_tlb.walker.walkRequestOrigin_Completed::Data            0                       # Table walker requests started/completed, data/inst
system.cpu.itb.stage2_mmu.stage2_tlb.walker.walkRequestOrigin_Completed::Inst            0                       # Table walker requests started/completed, data/inst
system.cpu.itb.stage2_mmu.stage2_tlb.walker.walkRequestOrigin_Completed::total            0                       # Table walker requests started/completed, data/inst
system.cpu.itb.stage2_mmu.stage2_tlb.walker.walkRequestOrigin::total            0                       # Table walker requests started/completed, data/inst
system.cpu.itb.stage2_mmu.stage2_tlb.walker.walks            0                       # Table walker walks requested
system.cpu.itb.stage2_mmu.stage2_tlb.write_accesses            0                       # DTB write accesses
system.cpu.itb.stage2_mmu.stage2_tlb.write_hits            0                       # DTB write hits
system.cpu.itb.stage2_mmu.stage2_tlb.write_misses            0                       # DTB write misses
system.cpu.itb.walker.walkRequestOrigin_Requested::Data            0                       # Table walker requests started/completed, data/inst
system.cpu.itb.walker.walkRequestOrigin_Requested::Inst            0                       # Table walker requests started/completed, data/inst
system.cpu.itb.walker.walkRequestOrigin_Requested::total            0                       # Table walker requests started/completed, data/inst
system.cpu.itb.walker.walkRequestOrigin_Completed::Data            0                       # Table walker requests started/completed, data/inst
system.cpu.itb.walker.walkRequestOrigin_Completed::Inst            0                       # Table walker requests started/completed, data/inst
system.cpu.itb.walker.walkRequestOrigin_Completed::total            0                       # Table walker requests started/completed, data/inst
system.cpu.itb.walker.walkRequestOrigin::total            0                       # Table walker requests started/completed, data/inst
system.cpu.itb.walker.walks                         0                       # Table walker walks requested
system.cpu.itb.write_accesses                       0                       # DTB write accesses
system.cpu.itb.write_hits                           0                       # DTB write hits
system.cpu.itb.write_misses                         0                       # DTB write misses
system.cpu.numCycles                        133494302                       # number of cpu cycles simulated
system.cpu.numFetchSuspends                         0                       # Number of times Execute suspended instruction fetching
system.cpu.numWorkItemsCompleted                    0                       # number of work items this cpu completed
system.cpu.numWorkItemsStarted                      0                       # number of work items this cpu started
system.cpu.op_class_0::No_OpClass                   0      0.00%      0.00% # Class of committed instruction
system.cpu.op_class_0::IntAlu                72955303     66.67%     66.67% # Class of committed instruction
system.cpu.op_class_0::IntMult                 568365      0.52%     67.19% # Class of committed instruction
system.cpu.op_class_0::IntDiv                       0      0.00%     67.19% # Class of committed instruction
system.cpu.op_class_0::FloatAdd                     0      0.00%     67.19% # Class of committed instruction
system.cpu.op_class_0::FloatCmp                     0      0.00%     67.19% # Class of committed instruction
system.cpu.op_class_0::FloatCvt                     0      0.00%     67.19% # Class of committed instruction
system.cpu.op_class_0::FloatMult                    0      0.00%     67.19% # Class of committed instruction
system.cpu.op_class_0::FloatMultAcc                 0      0.00%     67.19% # Class of committed instruction
system.cpu.op_class_0::FloatDiv                     0      0.00%     67.19% # Class of committed instruction
system.cpu.op_class_0::FloatMisc                    0      0.00%     67.19% # Class of committed instruction
system.cpu.op_class_0::FloatSqrt                    0      0.00%     67.19% # Class of committed instruction
system.cpu.op_class_0::SimdAdd                 241252      0.22%     67.41% # Class of committed instruction
system.cpu.op_class_0::SimdAddAcc                   0      0.00%     67.41% # Class of committed instruction
system.cpu.op_class_0::SimdAlu                 154720      0.14%     67.55% # Class of committed instruction
system.cpu.op_class_0::SimdCmp                 120626      0.11%     67.66% # Class of committed instruction
system.cpu.op_class_0::SimdCvt                      0      0.00%     67.66% # Class of committed instruction
system.cpu.op_class_0::SimdMisc                 44544      0.04%     67.70% # Class of committed instruction
system.cpu.op_class_0::SimdMult                     0      0.00%     67.70% # Class of committed instruction
system.cpu.op_class_0::SimdMultAcc                  0      0.00%     67.70% # Class of committed instruction
system.cpu.op_class_0::SimdShift                    0      0.00%     67.70% # Class of committed instruction
system.cpu.op_class_0::SimdShiftAcc                 0      0.00%     67.70% # Class of committed instruction
system.cpu.op_class_0::SimdDiv                      0      0.00%     67.70% # Class of committed instruction
system.cpu.op_class_0::SimdSqrt                     0      0.00%     67.70% # Class of committed instruction
system.cpu.op_class_0::SimdFloatAdd                 0      0.00%     67.70% # Class of committed instruction
system.cpu.op_class_0::SimdFloatAlu                 0      0.00%     67.70% # Class of committed instruction
system.cpu.op_class_0::SimdFloatCmp                 0      0.00%     67.70% # Class of committed instruction
system.cpu.op_class_0::SimdFloatCvt                 0      0.00%     67.70% # Class of committed instruction
system.cpu.op_class_0::SimdFloatDiv                 0      0.00%     67.70% # Class of committed instruction
system.cpu.op_class_0::SimdFloatMisc           166465      0.15%     67.85% # Class of committed instruction
system.cpu.op_class_0::SimdFloatMult                0      0.00%     67.85% # Class of committed instruction
system.cpu.op_class_0::SimdFloatMultAcc             0      0.00%     67.85% # Class of committed instruction
system.cpu.op_class_0::SimdFloatSqrt                0      0.00%     67.85% # Class of committed instruction
system.cpu.op_class_0::SimdReduceAdd                0      0.00%     67.85% # Class of committed instruction
system.cpu.op_class_0::SimdReduceAlu                0      0.00%     67.85% # Class of committed instruction
system.cpu.op_class_0::SimdReduceCmp                0      0.00%     67.85% # Class of committed instruction
system.cpu.op_class_0::SimdFloatReduceAdd            0      0.00%     67.85% # Class of committed instruction
system.cpu.op_class_0::SimdFloatReduceCmp            0      0.00%     67.85% # Class of committed instruction
system.cpu.op_class_0::SimdAes                      0      0.00%     67.85% # Class of committed instruction
system.cpu.op_class_0::SimdAesMix                   0      0.00%     67.85% # Class of committed instruction
system.cpu.op_class_0::SimdSha1Hash                 0      0.00%     67.85% # Class of committed instruction
system.cpu.op_class_0::SimdSha1Hash2                0      0.00%     67.85% # Class of committed instruction
system.cpu.op_class_0::SimdSha256Hash               0      0.00%     67.85% # Class of committed instruction
system.cpu.op_class_0::SimdSha256Hash2              0      0.00%     67.85% # Class of committed instruction
system.cpu.op_class_0::SimdShaSigma2                0      0.00%     67.85% # Class of committed instruction
system.cpu.op_class_0::SimdShaSigma3                0      0.00%     67.85% # Class of committed instruction
system.cpu.op_class_0::SimdPredAlu                  0      0.00%     67.85% # Class of committed instruction
system.cpu.op_class_0::MemRead               20646465     18.87%     86.72% # Class of committed instruction
system.cpu.op_class_0::MemWrite              14534197     13.28%    100.00% # Class of committed instruction
system.cpu.op_class_0::FloatMemRead                 0      0.00%    100.00% # Class of committed instruction
system.cpu.op_class_0::FloatMemWrite                0      0.00%    100.00% # Class of committed instruction
system.cpu.op_class_0::IprAccess                    0      0.00%    100.00% # Class of committed instruction
system.cpu.op_class_0::InstPrefetch                 0      0.00%    100.00% # Class of committed instruction
system.cpu.op_class_0::total                109431937                       # Class of committed instruction
system.cpu.tickCycles                       117881985                       # Number of cycles that the object actually ticked
system.cpu.workload.numSyscalls                    86                       # Number of system calls
system.membus.snoop_filter.hit_multi_requests            0                       # Number of requests hitting in the snoop filter with multiple (>1) holders of the requested data.
system.membus.snoop_filter.hit_multi_snoops            0                       # Number of snoops hitting in the snoop filter with multiple (>1) holders of the requested data.
system.membus.snoop_filter.hit_single_requests        14124                       # Number of requests hitting in the snoop filter with a single holder of the requested data.
system.membus.snoop_filter.hit_single_snoops            0                       # Number of snoops hitting in the snoop filter with a single holder of the requested data.
system.membus.snoop_filter.tot_requests         36645                       # Total number of requests made to the snoop filter.
system.membus.snoop_filter.tot_snoops               0                       # Total number of snoops made to the snoop filter.
system.tol2bus.snoop_filter.hit_multi_requests          426                       # Number of requests hitting in the snoop filter with multiple (>1) holders of the requested data.
system.tol2bus.snoop_filter.hit_multi_snoops            6                       # Number of snoops hitting in the snoop filter with multiple (>1) holders of the requested data.
system.tol2bus.snoop_filter.hit_single_requests       984128                       # Number of requests hitting in the snoop filter with a single holder of the requested data.
system.tol2bus.snoop_filter.hit_single_snoops          235                       # Number of snoops hitting in the snoop filter with a single holder of the requested data.
system.tol2bus.snoop_filter.tot_requests      1968981                       # Total number of requests made to the snoop filter.
system.tol2bus.snoop_filter.tot_snoops            241                       # Total number of snoops made to the snoop filter.
system.membus.pwrStateResidencyTicks::UNDEFINED  66747151000                       # Cumulative time (in ticks) in various power states
system.membus.trans_dist::ReadResp               3114                       # Transaction distribution
system.membus.trans_dist::WritebackDirty        13960                       # Transaction distribution
system.membus.trans_dist::CleanEvict              159                       # Transaction distribution
system.membus.trans_dist::ReadExReq             19412                       # Transaction distribution
system.membus.trans_dist::ReadExResp            19412                       # Transaction distribution
system.membus.trans_dist::ReadSharedReq          3114                       # Transaction distribution
system.membus.pkt_count_system.l2.mem_side::system.mem_ctrls.port        59171                       # Packet count per connected master and slave (bytes)
system.membus.pkt_count::total                  59171                       # Packet count per connected master and slave (bytes)
system.membus.pkt_size_system.l2.mem_side::system.mem_ctrls.port      4670208                       # Cumulative packet size per connected master and slave (bytes)
system.membus.pkt_size::total                 4670208                       # Cumulative packet size per connected master and slave (bytes)
system.membus.snoops                                0                       # Total snoops (count)
system.membus.snoopTraffic                          0                       # Total snoop traffic (bytes)
system.membus.snoop_fanout::samples             22526                       # Request fanout histogram
system.membus.snoop_fanout::mean                    0                       # Request fanout histogram
system.membus.snoop_fanout::stdev                   0                       # Request fanout histogram
system.membus.snoop_fanout::underflows              0      0.00%      0.00% # Request fanout histogram
system.membus.snoop_fanout::0                   22526    100.00%    100.00% # Request fanout histogram
system.membus.snoop_fanout::1                       0      0.00%    100.00% # Request fanout histogram
system.membus.snoop_fanout::overflows               0      0.00%    100.00% # Request fanout histogram
system.membus.snoop_fanout::min_value               0                       # Request fanout histogram
system.membus.snoop_fanout::max_value               0                       # Request fanout histogram
system.membus.snoop_fanout::total               22526                       # Request fanout histogram
system.membus.respLayer1.occupancy          212150000                       # Layer occupancy (ticks)
system.membus.respLayer1.utilization              0.3                       # Layer utilization (%)
system.membus.reqLayer0.occupancy           154147500                       # Layer occupancy (ticks)
system.membus.reqLayer0.utilization               0.2                       # Layer utilization (%)
system.tol2bus.pwrStateResidencyTicks::UNDEFINED  66747151000                       # Cumulative time (in ticks) in various power states
system.tol2bus.trans_dist::ReadResp            965133                       # Transaction distribution
system.tol2bus.trans_dist::WritebackDirty        47226                       # Transaction distribution
system.tol2bus.trans_dist::WritebackClean       947213                       # Transaction distribution
system.tol2bus.trans_dist::CleanEvict            4032                       # Transaction distribution
system.tol2bus.trans_dist::ReadExReq            19726                       # Transaction distribution
system.tol2bus.trans_dist::ReadExResp           19726                       # Transaction distribution
system.tol2bus.trans_dist::ReadCleanReq        947438                       # Transaction distribution
system.tol2bus.trans_dist::ReadSharedReq        17695                       # Transaction distribution
system.tol2bus.pkt_count_system.cpu.icache.mem_side::system.l2.cpu_side      2842089                       # Packet count per connected master and slave (bytes)
system.tol2bus.pkt_count_system.cpu.dcache.mem_side::system.l2.cpu_side       111751                       # Packet count per connected master and slave (bytes)
system.tol2bus.pkt_count::total               2953840                       # Packet count per connected master and slave (bytes)
system.tol2bus.pkt_size_system.cpu.icache.mem_side::system.l2.cpu_side    242515328                       # Cumulative packet size per connected master and slave (bytes)
system.tol2bus.pkt_size_system.cpu.dcache.mem_side::system.l2.cpu_side      9047936                       # Cumulative packet size per connected master and slave (bytes)
system.tol2bus.pkt_size::total              251563264                       # Cumulative packet size per connected master and slave (bytes)
system.tol2bus.snoops                           14349                       # Total snoops (count)
system.tol2bus.snoopTraffic                   1786880                       # Total snoop traffic (bytes)
system.tol2bus.snoop_fanout::samples           999208                       # Request fanout histogram
system.tol2bus.snoop_fanout::mean            0.000680                       # Request fanout histogram
system.tol2bus.snoop_fanout::stdev           0.026289                       # Request fanout histogram
system.tol2bus.snoop_fanout::underflows             0      0.00%      0.00% # Request fanout histogram
system.tol2bus.snoop_fanout::0                 998535     99.93%     99.93% # Request fanout histogram
system.tol2bus.snoop_fanout::1                    667      0.07%    100.00% # Request fanout histogram
system.tol2bus.snoop_fanout::2                      6      0.00%    100.00% # Request fanout histogram
system.tol2bus.snoop_fanout::overflows              0      0.00%    100.00% # Request fanout histogram
system.tol2bus.snoop_fanout::min_value              0                       # Request fanout histogram
system.tol2bus.snoop_fanout::max_value              2                       # Request fanout histogram
system.tol2bus.snoop_fanout::total             999208                       # Request fanout histogram
system.tol2bus.reqLayer0.occupancy         2945448500                       # Layer occupancy (ticks)
system.tol2bus.reqLayer0.utilization              4.4                       # Layer utilization (%)
system.tol2bus.respLayer1.occupancy          93554496                       # Layer occupancy (ticks)
system.tol2bus.respLayer1.utilization             0.1                       # Layer utilization (%)
system.tol2bus.respLayer0.occupancy        2368595000                       # Layer occupancy (ticks)
system.tol2bus.respLayer0.utilization             3.5                       # Layer utilization (%)
system.voltage_domain.voltage                       1                       # Voltage in Volts
system.clk_domain.clock                          1000                       # Clock period in ticks
system.l2.pwrStateResidencyTicks::UNDEFINED  66747151000                       # Cumulative time (in ticks) in various power states
system.l2.demand_hits::.cpu.inst               947101                       # number of demand (read+write) hits
system.l2.demand_hits::.cpu.data                15228                       # number of demand (read+write) hits
system.l2.demand_hits::total                   962329                       # number of demand (read+write) hits
system.l2.overall_hits::.cpu.inst              947101                       # number of overall hits
system.l2.overall_hits::.cpu.data               15228                       # number of overall hits
system.l2.overall_hits::total                  962329                       # number of overall hits
system.l2.demand_misses::.cpu.inst                337                       # number of demand (read+write) misses
system.l2.demand_misses::.cpu.data              22193                       # number of demand (read+write) misses
system.l2.demand_misses::total                  22530                       # number of demand (read+write) misses
system.l2.overall_misses::.cpu.inst               337                       # number of overall misses
system.l2.overall_misses::.cpu.data             22193                       # number of overall misses
system.l2.overall_misses::total                 22530                       # number of overall misses
system.l2.demand_miss_latency::.cpu.inst     27855000                       # number of demand (read+write) miss cycles
system.l2.demand_miss_latency::.cpu.data   2000576500                       # number of demand (read+write) miss cycles
system.l2.demand_miss_latency::total       2028431500                       # number of demand (read+write) miss cycles
system.l2.overall_miss_latency::.cpu.inst     27855000                       # number of overall miss cycles
system.l2.overall_miss_latency::.cpu.data   2000576500                       # number of overall miss cycles
system.l2.overall_miss_latency::total      2028431500                       # number of overall miss cycles
system.l2.demand_accesses::.cpu.inst           947438                       # number of demand (read+write) accesses
system.l2.demand_accesses::.cpu.data            37421                       # number of demand (read+write) accesses
system.l2.demand_accesses::total               984859                       # number of demand (read+write) accesses
system.l2.overall_accesses::.cpu.inst          947438                       # number of overall (read+write) accesses
system.l2.overall_accesses::.cpu.data           37421                       # number of overall (read+write) accesses
system.l2.overall_accesses::total              984859                       # number of overall (read+write) accesses
system.l2.demand_miss_rate::.cpu.inst        0.000356                       # miss rate for demand accesses
system.l2.demand_miss_rate::.cpu.data        0.593063                       # miss rate for demand accesses
system.l2.demand_miss_rate::total            0.022876                       # miss rate for demand accesses
system.l2.overall_miss_rate::.cpu.inst       0.000356                       # miss rate for overall accesses
system.l2.overall_miss_rate::.cpu.data       0.593063                       # miss rate for overall accesses
system.l2.overall_miss_rate::total           0.022876                       # miss rate for overall accesses
system.l2.demand_avg_miss_latency::.cpu.inst 82655.786350                       # average overall miss latency
system.l2.demand_avg_miss_latency::.cpu.data 90144.482494                       # average overall miss latency
system.l2.demand_avg_miss_latency::total 90032.467821                       # average overall miss latency
system.l2.overall_avg_miss_latency::.cpu.inst 82655.786350                       # average overall miss latency
system.l2.overall_avg_miss_latency::.cpu.data 90144.482494                       # average overall miss latency
system.l2.overall_avg_miss_latency::total 90032.467821                       # average overall miss latency
system.l2.blocked_cycles::no_mshrs                  0                       # number of cycles access was blocked
system.l2.blocked_cycles::no_targets                0                       # number of cycles access was blocked
system.l2.blocked::no_mshrs                         0                       # number of cycles access was blocked
system.l2.blocked::no_targets                       0                       # number of cycles access was blocked
system.l2.avg_blocked_cycles::no_mshrs            nan                       # average number of cycles each access was blocked
system.l2.avg_blocked_cycles::no_targets          nan                       # average number of cycles each access was blocked
system.l2.writebacks::.writebacks               13960                       # number of writebacks
system.l2.writebacks::total                     13960                       # number of writebacks
system.l2.demand_mshr_hits::.cpu.data               4                       # number of demand (read+write) MSHR hits
system.l2.demand_mshr_hits::total                   4                       # number of demand (read+write) MSHR hits
system.l2.overall_mshr_hits::.cpu.data              4                       # number of overall MSHR hits
system.l2.overall_mshr_hits::total                  4                       # number of overall MSHR hits
system.l2.demand_mshr_misses::.cpu.inst           337                       # number of demand (read+write) MSHR misses
system.l2.demand_mshr_misses::.cpu.data         22189                       # number of demand (read+write) MSHR misses
system.l2.demand_mshr_misses::total             22526                       # number of demand (read+write) MSHR misses
system.l2.overall_mshr_misses::.cpu.inst          337                       # number of overall MSHR misses
system.l2.overall_mshr_misses::.cpu.data        22189                       # number of overall MSHR misses
system.l2.overall_mshr_misses::total            22526                       # number of overall MSHR misses
system.l2.demand_mshr_miss_latency::.cpu.inst     24485000                       # number of demand (read+write) MSHR miss cycles
system.l2.demand_mshr_miss_latency::.cpu.data   1778409000                       # number of demand (read+write) MSHR miss cycles
system.l2.demand_mshr_miss_latency::total   1802894000                       # number of demand (read+write) MSHR miss cycles
system.l2.overall_mshr_miss_latency::.cpu.inst     24485000                       # number of overall MSHR miss cycles
system.l2.overall_mshr_miss_latency::.cpu.data   1778409000                       # number of overall MSHR miss cycles
system.l2.overall_mshr_miss_latency::total   1802894000                       # number of overall MSHR miss cycles
system.l2.demand_mshr_miss_rate::.cpu.inst     0.000356                       # mshr miss rate for demand accesses
system.l2.demand_mshr_miss_rate::.cpu.data     0.592956                       # mshr miss rate for demand accesses
system.l2.demand_mshr_miss_rate::total       0.022872                       # mshr miss rate for demand accesses
system.l2.overall_mshr_miss_rate::.cpu.inst     0.000356                       # mshr miss rate for overall accesses
system.l2.overall_mshr_miss_rate::.cpu.data     0.592956                       # mshr miss rate for overall accesses
system.l2.overall_mshr_miss_rate::total      0.022872                       # mshr miss rate for overall accesses
system.l2.demand_avg_mshr_miss_latency::.cpu.inst 72655.786350                       # average overall mshr miss latency
system.l2.demand_avg_mshr_miss_latency::.cpu.data 80148.226599                       # average overall mshr miss latency
system.l2.demand_avg_mshr_miss_latency::total 80036.136021                       # average overall mshr miss latency
system.l2.overall_avg_mshr_miss_latency::.cpu.inst 72655.786350                       # average overall mshr miss latency
system.l2.overall_avg_mshr_miss_latency::.cpu.data 80148.226599                       # average overall mshr miss latency
system.l2.overall_avg_mshr_miss_latency::total 80036.136021                       # average overall mshr miss latency
system.l2.replacements                          14349                       # number of replacements
system.l2.WritebackDirty_hits::.writebacks        33266                       # number of WritebackDirty hits
system.l2.WritebackDirty_hits::total            33266                       # number of WritebackDirty hits
system.l2.WritebackDirty_accesses::.writebacks        33266                       # number of WritebackDirty accesses(hits+misses)
system.l2.WritebackDirty_accesses::total        33266                       # number of WritebackDirty accesses(hits+misses)
system.l2.WritebackClean_hits::.writebacks       946840                       # number of WritebackClean hits
system.l2.WritebackClean_hits::total           946840                       # number of WritebackClean hits
system.l2.WritebackClean_accesses::.writebacks       946840                       # number of WritebackClean accesses(hits+misses)
system.l2.WritebackClean_accesses::total       946840                       # number of WritebackClean accesses(hits+misses)
system.l2.CleanEvict_mshr_misses::.writebacks           11                       # number of CleanEvict MSHR misses
system.l2.CleanEvict_mshr_misses::total            11                       # number of CleanEvict MSHR misses
system.l2.CleanEvict_mshr_miss_rate::.writebacks          inf                       # mshr miss rate for CleanEvict accesses
system.l2.CleanEvict_mshr_miss_rate::total          inf                       # mshr miss rate for CleanEvict accesses
system.l2.ReadExReq_hits::.cpu.data               314                       # number of ReadExReq hits
system.l2.ReadExReq_hits::total                   314                       # number of ReadExReq hits
system.l2.ReadExReq_misses::.cpu.data           19412                       # number of ReadExReq misses
system.l2.ReadExReq_misses::total               19412                       # number of ReadExReq misses
system.l2.ReadExReq_miss_latency::.cpu.data   1734076500                       # number of ReadExReq miss cycles
system.l2.ReadExReq_miss_latency::total    1734076500                       # number of ReadExReq miss cycles
system.l2.ReadExReq_accesses::.cpu.data         19726                       # number of ReadExReq accesses(hits+misses)
system.l2.ReadExReq_accesses::total             19726                       # number of ReadExReq accesses(hits+misses)
system.l2.ReadExReq_miss_rate::.cpu.data     0.984082                       # miss rate for ReadExReq accesses
system.l2.ReadExReq_miss_rate::total         0.984082                       # miss rate for ReadExReq accesses
system.l2.ReadExReq_avg_miss_latency::.cpu.data 89330.130847                       # average ReadExReq miss latency
system.l2.ReadExReq_avg_miss_latency::total 89330.130847                       # average ReadExReq miss latency
system.l2.ReadExReq_mshr_misses::.cpu.data        19412                       # number of ReadExReq MSHR misses
system.l2.ReadExReq_mshr_misses::total          19412                       # number of ReadExReq MSHR misses
system.l2.ReadExReq_mshr_miss_latency::.cpu.data   1539956500                       # number of ReadExReq MSHR miss cycles
system.l2.ReadExReq_mshr_miss_latency::total   1539956500                       # number of ReadExReq MSHR miss cycles
system.l2.ReadExReq_mshr_miss_rate::.cpu.data     0.984082                       # mshr miss rate for ReadExReq accesses
system.l2.ReadExReq_mshr_miss_rate::total     0.984082                       # mshr miss rate for ReadExReq accesses
system.l2.ReadExReq_avg_mshr_miss_latency::.cpu.data 79330.130847                       # average ReadExReq mshr miss latency
system.l2.ReadExReq_avg_mshr_miss_latency::total 79330.130847                       # average ReadExReq mshr miss latency
system.l2.ReadCleanReq_hits::.cpu.inst         947101                       # number of ReadCleanReq hits
system.l2.ReadCleanReq_hits::total             947101                       # number of ReadCleanReq hits
system.l2.ReadCleanReq_misses::.cpu.inst          337                       # number of ReadCleanReq misses
system.l2.ReadCleanReq_misses::total              337                       # number of ReadCleanReq misses
system.l2.ReadCleanReq_miss_latency::.cpu.inst     27855000                       # number of ReadCleanReq miss cycles
system.l2.ReadCleanReq_miss_latency::total     27855000                       # number of ReadCleanReq miss cycles
system.l2.ReadCleanReq_accesses::.cpu.inst       947438                       # number of ReadCleanReq accesses(hits+misses)
system.l2.ReadCleanReq_accesses::total         947438                       # number of ReadCleanReq accesses(hits+misses)
system.l2.ReadCleanReq_miss_rate::.cpu.inst     0.000356                       # miss rate for ReadCleanReq accesses
system.l2.ReadCleanReq_miss_rate::total      0.000356                       # miss rate for ReadCleanReq accesses
system.l2.ReadCleanReq_avg_miss_latency::.cpu.inst 82655.786350                       # average ReadCleanReq miss latency
system.l2.ReadCleanReq_avg_miss_latency::total 82655.786350                       # average ReadCleanReq miss latency
system.l2.ReadCleanReq_mshr_misses::.cpu.inst          337                       # number of ReadCleanReq MSHR misses
system.l2.ReadCleanReq_mshr_misses::total          337                       # number of ReadCleanReq MSHR misses
system.l2.ReadCleanReq_mshr_miss_latency::.cpu.inst     24485000                       # number of ReadCleanReq MSHR miss cycles
system.l2.ReadCleanReq_mshr_miss_latency::total     24485000                       # number of ReadCleanReq MSHR miss cycles
system.l2.ReadCleanReq_mshr_miss_rate::.cpu.inst     0.000356                       # mshr miss rate for ReadCleanReq accesses
system.l2.ReadCleanReq_mshr_miss_rate::total     0.000356                       # mshr miss rate for ReadCleanReq accesses
system.l2.ReadCleanReq_avg_mshr_miss_latency::.cpu.inst 72655.786350                       # average ReadCleanReq mshr miss latency
system.l2.ReadCleanReq_avg_mshr_miss_latency::total 72655.786350                       # average ReadCleanReq mshr miss latency
system.l2.ReadSharedReq_hits::.cpu.data         14914                       # number of ReadSharedReq hits
system.l2.ReadSharedReq_hits::total             14914                       # number of ReadSharedReq hits
system.l2.ReadSharedReq_misses::.cpu.data         2781                       # number of ReadSharedReq misses
system.l2.ReadSharedReq_misses::total            2781                       # number of ReadSharedReq misses
system.l2.ReadSharedReq_miss_latency::.cpu.data    266500000                       # number of ReadSharedReq miss cycles
system.l2.ReadSharedReq_miss_latency::total    266500000                       # number of ReadSharedReq miss cycles
system.l2.ReadSharedReq_accesses::.cpu.data        17695                       # number of ReadSharedReq accesses(hits+misses)
system.l2.ReadSharedReq_accesses::total         17695                       # number of ReadSharedReq accesses(hits+misses)
system.l2.ReadSharedReq_miss_rate::.cpu.data     0.157163                       # miss rate for ReadSharedReq accesses
system.l2.ReadSharedReq_miss_rate::total     0.157163                       # miss rate for ReadSharedReq accesses
system.l2.ReadSharedReq_avg_miss_latency::.cpu.data 95828.838547                       # average ReadSharedReq miss latency
system.l2.ReadSharedReq_avg_miss_latency::total 95828.838547                       # average ReadSharedReq miss latency
system.l2.ReadSharedReq_mshr_hits::.cpu.data            4                       # number of ReadSharedReq MSHR hits
system.l2.ReadSharedReq_mshr_hits::total            4                       # number of ReadSharedReq MSHR hits
system.l2.ReadSharedReq_mshr_misses::.cpu.data         2777                       # number of ReadSharedReq MSHR misses
system.l2.ReadSharedReq_mshr_misses::total         2777                       # number of ReadSharedReq MSHR misses
system.l2.ReadSharedReq_mshr_miss_latency::.cpu.data    238452500                       # number of ReadSharedReq MSHR miss cycles
system.l2.ReadSharedReq_mshr_miss_latency::total    238452500                       # number of ReadSharedReq MSHR miss cycles
system.l2.ReadSharedReq_mshr_miss_rate::.cpu.data     0.156937                       # mshr miss rate for ReadSharedReq accesses
system.l2.ReadSharedReq_mshr_miss_rate::total     0.156937                       # mshr miss rate for ReadSharedReq accesses
system.l2.ReadSharedReq_avg_mshr_miss_latency::.cpu.data 85866.942744                       # average ReadSharedReq mshr miss latency
system.l2.ReadSharedReq_avg_mshr_miss_latency::total 85866.942744                       # average ReadSharedReq mshr miss latency
system.l2.tags.pwrStateResidencyTicks::UNDEFINED  66747151000                       # Cumulative time (in ticks) in various power states
system.l2.tags.tagsinuse                  7805.018518                       # Cycle average of tags in use
system.l2.tags.total_refs                     1968540                       # Total number of references to valid blocks.
system.l2.tags.sampled_refs                     22541                       # Sample count of references to valid blocks.
system.l2.tags.avg_refs                     87.331529                       # Average number of references to valid blocks.
system.l2.tags.warmup_cycle                     82000                       # Cycle when the warmup percentage was hit.
system.l2.tags.occ_blocks::.writebacks       6.468987                       # Average occupied blocks per requestor
system.l2.tags.occ_blocks::.cpu.inst        61.009428                       # Average occupied blocks per requestor
system.l2.tags.occ_blocks::.cpu.data      7737.540103                       # Average occupied blocks per requestor
system.l2.tags.occ_percent::.writebacks      0.000790                       # Average percentage of cache occupancy
system.l2.tags.occ_percent::.cpu.inst        0.007447                       # Average percentage of cache occupancy
system.l2.tags.occ_percent::.cpu.data        0.944524                       # Average percentage of cache occupancy
system.l2.tags.occ_percent::total            0.952761                       # Average percentage of cache occupancy
system.l2.tags.occ_task_id_blocks::1024          8192                       # Occupied blocks per task id
system.l2.tags.age_task_id_blocks_1024::0            1                       # Occupied blocks per task id
system.l2.tags.age_task_id_blocks_1024::1           15                       # Occupied blocks per task id
system.l2.tags.age_task_id_blocks_1024::2          234                       # Occupied blocks per task id
system.l2.tags.age_task_id_blocks_1024::3         2092                       # Occupied blocks per task id
system.l2.tags.age_task_id_blocks_1024::4         5850                       # Occupied blocks per task id
system.l2.tags.occ_task_id_percent::1024            1                       # Percentage of cache occupancy per task id
system.l2.tags.tag_accesses                  15770981                       # Number of tag accesses
system.l2.tags.data_accesses                 15770981                       # Number of data accesses
system.cpu_voltage_domain.voltage                   1                       # Voltage in Volts
system.mem_ctrls.pwrStateResidencyTicks::UNDEFINED  66747151000                       # Cumulative time (in ticks) in various power states
system.mem_ctrls.bytes_read::.cpu.inst          43136                       # Number of bytes read from this memory
system.mem_ctrls.bytes_read::.cpu.data        2840192                       # Number of bytes read from this memory
system.mem_ctrls.bytes_read::total            2883328                       # Number of bytes read from this memory
system.mem_ctrls.bytes_inst_read::.cpu.inst        43136                       # Number of instructions bytes read from this memory
system.mem_ctrls.bytes_inst_read::total         43136                       # Number of instructions bytes read from this memory
system.mem_ctrls.bytes_written::.writebacks      1786880                       # Number of bytes written to this memory
system.mem_ctrls.bytes_written::total         1786880                       # Number of bytes written to this memory
system.mem_ctrls.num_reads::.cpu.inst             337                       # Number of read requests responded to by this memory
system.mem_ctrls.num_reads::.cpu.data           22189                       # Number of read requests responded to by this memory
system.mem_ctrls.num_reads::total               22526                       # Number of read requests responded to by this memory
system.mem_ctrls.num_writes::.writebacks        13960                       # Number of write requests responded to by this memory
system.mem_ctrls.num_writes::total              13960                       # Number of write requests responded to by this memory
system.mem_ctrls.bw_read::.cpu.inst            646260                       # Total read bandwidth from this memory (bytes/s)
system.mem_ctrls.bw_read::.cpu.data          42551509                       # Total read bandwidth from this memory (bytes/s)
system.mem_ctrls.bw_read::total              43197769                       # Total read bandwidth from this memory (bytes/s)
system.mem_ctrls.bw_inst_read::.cpu.inst       646260                       # Instruction read bandwidth from this memory (bytes/s)
system.mem_ctrls.bw_inst_read::total           646260                       # Instruction read bandwidth from this memory (bytes/s)
system.mem_ctrls.bw_write::.writebacks       26770880                       # Write bandwidth from this memory (bytes/s)
system.mem_ctrls.bw_write::total             26770880                       # Write bandwidth from this memory (bytes/s)
system.mem_ctrls.bw_total::.writebacks       26770880                       # Total bandwidth to/from this memory (bytes/s)
system.mem_ctrls.bw_total::.cpu.inst           646260                       # Total bandwidth to/from this memory (bytes/s)
system.mem_ctrls.bw_total::.cpu.data         42551509                       # Total bandwidth to/from this memory (bytes/s)
system.mem_ctrls.bw_total::total             69968649                       # Total bandwidth to/from this memory (bytes/s)
system.mem_ctrls.avgPriority_.writebacks::samples     27920.00                       # Average QoS priority value for accepted requests
system.mem_ctrls.avgPriority_.cpu.inst::samples       674.00                       # Average QoS priority value for accepted requests
system.mem_ctrls.avgPriority_.cpu.data::samples     44368.00                       # Average QoS priority value for accepted requests
system.mem_ctrls.priorityMinLatency      0.000000018750                       # per QoS priority minimum request to response latency (s)
system.mem_ctrls.priorityMaxLatency      0.001627362750                       # per QoS priority maximum request to response latency (s)
system.mem_ctrls.numReadWriteTurnArounds         1548                       # Number of turnarounds from READ to WRITE
system.mem_ctrls.numWriteReadTurnArounds         1548                       # Number of turnarounds from WRITE to READ
system.mem_ctrls.numStayReadState               98433                       # Number of times bus staying in READ state
system.mem_ctrls.numStayWriteState              26401                       # Number of times bus staying in WRITE state
system.mem_ctrls.readReqs                       22526                       # Number of read requests accepted
system.mem_ctrls.writeReqs                      13960                       # Number of write requests accepted
system.mem_ctrls.readBursts                     45052                       # Number of DRAM read bursts, including those serviced by the write queue
system.mem_ctrls.writeBursts                    27920                       # Number of DRAM write bursts, including those merged in the write queue
system.mem_ctrls.servicedByWrQ                     10                       # Number of DRAM read bursts serviced by the write queue
system.mem_ctrls.mergedWrBursts                     0                       # Number of DRAM write bursts merged with an existing one
system.mem_ctrls.neitherReadNorWriteReqs            0                       # Number of requests that are neither read nor write
system.mem_ctrls.perBankRdBursts::0              2780                       # Per bank write bursts
system.mem_ctrls.perBankRdBursts::1              2650                       # Per bank write bursts
system.mem_ctrls.perBankRdBursts::2              2668                       # Per bank write bursts
system.mem_ctrls.perBankRdBursts::3              3002                       # Per bank write bursts
system.mem_ctrls.perBankRdBursts::4              3098                       # Per bank write bursts
system.mem_ctrls.perBankRdBursts::5              2758                       # Per bank write bursts
system.mem_ctrls.perBankRdBursts::6              2766                       # Per bank write bursts
system.mem_ctrls.perBankRdBursts::7              2788                       # Per bank write bursts
system.mem_ctrls.perBankRdBursts::8              2772                       # Per bank write bursts
system.mem_ctrls.perBankRdBursts::9              2832                       # Per bank write bursts
system.mem_ctrls.perBankRdBursts::10             2788                       # Per bank write bursts
system.mem_ctrls.perBankRdBursts::11             2832                       # Per bank write bursts
system.mem_ctrls.perBankRdBursts::12             2862                       # Per bank write bursts
system.mem_ctrls.perBankRdBursts::13             2770                       # Per bank write bursts
system.mem_ctrls.perBankRdBursts::14             2878                       # Per bank write bursts
system.mem_ctrls.perBankRdBursts::15             2798                       # Per bank write bursts
system.mem_ctrls.perBankWrBursts::0              1681                       # Per bank write bursts
system.mem_ctrls.perBankWrBursts::1              1586                       # Per bank write bursts
system.mem_ctrls.perBankWrBursts::2              1614                       # Per bank write bursts
system.mem_ctrls.perBankWrBursts::3              1874                       # Per bank write bursts
system.mem_ctrls.perBankWrBursts::4              2044                       # Per bank write bursts
system.mem_ctrls.perBankWrBursts::5              1732                       # Per bank write bursts
system.mem_ctrls.perBankWrBursts::6              1742                       # Per bank write bursts
system.mem_ctrls.perBankWrBursts::7              1742                       # Per bank write bursts
system.mem_ctrls.perBankWrBursts::8              1722                       # Per bank write bursts
system.mem_ctrls.perBankWrBursts::9              1754                       # Per bank write bursts
system.mem_ctrls.perBankWrBursts::10             1720                       # Per bank write bursts
system.mem_ctrls.perBankWrBursts::11             1726                       # Per bank write bursts
system.mem_ctrls.perBankWrBursts::12             1756                       # Per bank write bursts
system.mem_ctrls.perBankWrBursts::13             1718                       # Per bank write bursts
system.mem_ctrls.perBankWrBursts::14             1756                       # Per bank write bursts
system.mem_ctrls.perBankWrBursts::15             1726                       # Per bank write bursts
system.mem_ctrls.avgRdQLen                       2.08                       # Average read queue length when enqueuing
system.mem_ctrls.avgWrQLen                      22.98                       # Average write queue length when enqueuing
system.mem_ctrls.totQLat                    793347750                       # Total ticks spent queuing
system.mem_ctrls.totBusLat                  225210000                       # Total ticks spent in databus transfers
system.mem_ctrls.totMemAccLat              1637885250                       # Total ticks spent from burst creation until serviced by the DRAM
system.mem_ctrls.avgQLat                     17613.51                       # Average queueing delay per DRAM burst
system.mem_ctrls.avgBusLat                    5000.00                       # Average bus latency per DRAM burst
system.mem_ctrls.avgMemAccLat                36363.51                       # Average memory access latency per DRAM burst
system.mem_ctrls.numRdRetry                         0                       # Number of times read queue was full causing retry
system.mem_ctrls.numWrRetry                         0                       # Number of times write queue was full causing retry
system.mem_ctrls.readRowHits                    30588                       # Number of row buffer hits during reads
system.mem_ctrls.writeRowHits                   21551                       # Number of row buffer hits during writes
system.mem_ctrls.readRowHitRate                 67.91                       # Row buffer hit rate for reads
system.mem_ctrls.writeRowHitRate                77.19                       # Row buffer hit rate for writes
system.mem_ctrls.readPktSize::0                     0                       # Read request sizes (log2)
system.mem_ctrls.readPktSize::1                     0                       # Read request sizes (log2)
system.mem_ctrls.readPktSize::2                     0                       # Read request sizes (log2)
system.mem_ctrls.readPktSize::3                     0                       # Read request sizes (log2)
system.mem_ctrls.readPktSize::4                     0                       # Read request sizes (log2)
system.mem_ctrls.readPktSize::5                     0                       # Read request sizes (log2)
system.mem_ctrls.readPktSize::6                 45052                       # Read request sizes (log2)
system.mem_ctrls.writePktSize::0                    0                       # Write request sizes (log2)
system.mem_ctrls.writePktSize::1                    0                       # Write request sizes (log2)
system.mem_ctrls.writePktSize::2                    0                       # Write request sizes (log2)
system.mem_ctrls.writePktSize::3                    0                       # Write request sizes (log2)
system.mem_ctrls.writePktSize::4                    0                       # Write request sizes (log2)
system.mem_ctrls.writePktSize::5                    0                       # Write request sizes (log2)
system.mem_ctrls.writePktSize::6                27920                       # Write request sizes (log2)
system.mem_ctrls.rdQLenPdf::0                   21803                       # What read queue length does an incoming req see
system.mem_ctrls.rdQLenPdf::1                   21856                       # What read queue length does an incoming req see
system.mem_ctrls.rdQLenPdf::2                     715                       # What read queue length does an incoming req see
system.mem_ctrls.rdQLenPdf::3                     663                       # What read queue length does an incoming req see
system.mem_ctrls.rdQLenPdf::4                       3                       # What read queue length does an incoming req see
system.mem_ctrls.rdQLenPdf::5                       2                       # What read queue length does an incoming req see
system.mem_ctrls.rdQLenPdf::6                       0                       # What read queue length does an incoming req see
system.mem_ctrls.rdQLenPdf::7                       0                       # What read queue length does an incoming req see
system.mem_ctrls.rdQLenPdf::8                       0                       # What read queue length does an incoming req see
system.mem_ctrls.rdQLenPdf::9                       0                       # What read queue length does an incoming req see
system.mem_ctrls.rdQLenPdf::10                      0                       # What read queue length does an incoming req see
system.mem_ctrls.rdQLenPdf::11                      0                       # What read queue length does an incoming req see
system.mem_ctrls.rdQLenPdf::12                      0                       # What read queue length does an incoming req see
system.mem_ctrls.rdQLenPdf::13                      0                       # What read queue length does an incoming req see
system.mem_ctrls.rdQLenPdf::14                      0                       # What read queue length does an incoming req see
system.mem_ctrls.rdQLenPdf::15                      0                       # What read queue length does an incoming req see
system.mem_ctrls.rdQLenPdf::16                      0                       # What read queue length does an incoming req see
system.mem_ctrls.rdQLenPdf::17                      0                       # What read queue length does an incoming req see
system.mem_ctrls.rdQLenPdf::18                      0                       # What read queue length does an incoming req see
system.mem_ctrls.rdQLenPdf::19                      0                       # What read queue length does an incoming req see
system.mem_ctrls.rdQLenPdf::20                      0                       # What read queue length does an incoming req see
system.mem_ctrls.rdQLenPdf::21                      0                       # What read queue length does an incoming req see
system.mem_ctrls.rdQLenPdf::22                      0                       # What read queue length does an incoming req see
system.mem_ctrls.rdQLenPdf::23                      0                       # What read queue length does an incoming req see
system.mem_ctrls.rdQLenPdf::24                      0                       # What read queue length does an incoming req see
system.mem_ctrls.rdQLenPdf::25                      0                       # What read queue length does an incoming req see
system.mem_ctrls.rdQLenPdf::26                      0                       # What read queue length does an incoming req see
system.mem_ctrls.rdQLenPdf::27                      0                       # What read queue length does an incoming req see
system.mem_ctrls.rdQLenPdf::28                      0                       # What read queue length does an incoming req see
system.mem_ctrls.rdQLenPdf::29                      0                       # What read queue length does an incoming req see
system.mem_ctrls.rdQLenPdf::30                      0                       # What read queue length does an incoming req see
system.mem_ctrls.rdQLenPdf::31                      0                       # What read queue length does an incoming req see
system.mem_ctrls.wrQLenPdf::0                       1                       # What write queue length does an incoming req see
system.mem_ctrls.wrQLenPdf::1                       1                       # What write queue length does an incoming req see
system.mem_ctrls.wrQLenPdf::2                       1                       # What write queue length does an incoming req see
system.mem_ctrls.wrQLenPdf::3                       1                       # What write queue length does an incoming req see
system.mem_ctrls.wrQLenPdf::4                       1                       # What write queue length does an incoming req see
system.mem_ctrls.wrQLenPdf::5                       1                       # What write queue length does an incoming req see
system.mem_ctrls.wrQLenPdf::6                       1                       # What write queue length does an incoming req see
system.mem_ctrls.wrQLenPdf::7                       1                       # What write queue length does an incoming req see
system.mem_ctrls.wrQLenPdf::8                       1                       # What write queue length does an incoming req see
system.mem_ctrls.wrQLenPdf::9                       1                       # What write queue length does an incoming req see
system.mem_ctrls.wrQLenPdf::10                      1                       # What write queue length does an incoming req see
system.mem_ctrls.wrQLenPdf::11                      1                       # What write queue length does an incoming req see
system.mem_ctrls.wrQLenPdf::12                      1                       # What write queue length does an incoming req see
system.mem_ctrls.wrQLenPdf::13                      1                       # What write queue length does an incoming req see
system.mem_ctrls.wrQLenPdf::14                      1                       # What write queue length does an incoming req see
system.mem_ctrls.wrQLenPdf::15                   1488                       # What write queue length does an incoming req see
system.mem_ctrls.wrQLenPdf::16                   1490                       # What write queue length does an incoming req see
system.mem_ctrls.wrQLenPdf::17                   1544                       # What write queue length does an incoming req see
system.mem_ctrls.wrQLenPdf::18                   1546                       # What write queue length does an incoming req see
system.mem_ctrls.wrQLenPdf::19                   1549                       # What write queue length does an incoming req see
system.mem_ctrls.wrQLenPdf::20                   1550                       # What write queue length does an incoming req see
system.mem_ctrls.wrQLenPdf::21                   1551                       # What write queue length does an incoming req see
system.mem_ctrls.wrQLenPdf::22                   1550                       # What write queue length does an incoming req see
system.mem_ctrls.wrQLenPdf::23                   1551                       # What write queue length does an incoming req see
system.mem_ctrls.wrQLenPdf::24                   1557                       # What write queue length does an incoming req see
system.mem_ctrls.wrQLenPdf::25                   1556                       # What write queue length does an incoming req see
system.mem_ctrls.wrQLenPdf::26                   1575                       # What write queue length does an incoming req see
system.mem_ctrls.wrQLenPdf::27                   1588                       # What write queue length does an incoming req see
system.mem_ctrls.wrQLenPdf::28                   1580                       # What write queue length does an incoming req see
system.mem_ctrls.wrQLenPdf::29                   1570                       # What write queue length does an incoming req see
system.mem_ctrls.wrQLenPdf::30                   1553                       # What write queue length does an incoming req see
system.mem_ctrls.wrQLenPdf::31                   1550                       # What write queue length does an incoming req see
system.mem_ctrls.wrQLenPdf::32                   1550                       # What write queue length does an incoming req see
system.mem_ctrls.wrQLenPdf::33                      6                       # What write queue length does an incoming req see
system.mem_ctrls.wrQLenPdf::34                      1                       # What write queue length does an incoming req see
system.mem_ctrls.wrQLenPdf::35                      0                       # What write queue length does an incoming req see
system.mem_ctrls.wrQLenPdf::36                      0                       # What write queue length does an incoming req see
system.mem_ctrls.wrQLenPdf::37                      0                       # What write queue length does an incoming req see
system.mem_ctrls.wrQLenPdf::38                      0                       # What write queue length does an incoming req see
system.mem_ctrls.wrQLenPdf::39                      0                       # What write queue length does an incoming req see
system.mem_ctrls.wrQLenPdf::40                      0                       # What write queue length does an incoming req see
system.mem_ctrls.wrQLenPdf::41                      0                       # What write queue length does an incoming req see
system.mem_ctrls.wrQLenPdf::42                      0                       # What write queue length does an incoming req see
system.mem_ctrls.wrQLenPdf::43                      0                       # What write queue length does an incoming req see
system.mem_ctrls.wrQLenPdf::44                      0                       # What write queue length does an incoming req see
system.mem_ctrls.wrQLenPdf::45                      0                       # What write queue length does an incoming req see
system.mem_ctrls.wrQLenPdf::46                      0                       # What write queue length does an incoming req see
system.mem_ctrls.wrQLenPdf::47                      0                       # What write queue length does an incoming req see
system.mem_ctrls.wrQLenPdf::48                      0                       # What write queue length does an incoming req see
system.mem_ctrls.wrQLenPdf::49                      0                       # What write queue length does an incoming req see
system.mem_ctrls.wrQLenPdf::50                      0                       # What write queue length does an incoming req see
system.mem_ctrls.wrQLenPdf::51                      0                       # What write queue length does an incoming req see
system.mem_ctrls.wrQLenPdf::52                      0                       # What write queue length does an incoming req see
system.mem_ctrls.wrQLenPdf::53                      0                       # What write queue length does an incoming req see
system.mem_ctrls.wrQLenPdf::54                      0                       # What write queue length does an incoming req see
system.mem_ctrls.wrQLenPdf::55                      0                       # What write queue length does an incoming req see
system.mem_ctrls.wrQLenPdf::56                      0                       # What write queue length does an incoming req see
system.mem_ctrls.wrQLenPdf::57                      0                       # What write queue length does an incoming req see
system.mem_ctrls.wrQLenPdf::58                      0                       # What write queue length does an incoming req see
system.mem_ctrls.wrQLenPdf::59                      0                       # What write queue length does an incoming req see
system.mem_ctrls.wrQLenPdf::60                      0                       # What write queue length does an incoming req see
system.mem_ctrls.wrQLenPdf::61                      0                       # What write queue length does an incoming req see
system.mem_ctrls.wrQLenPdf::62                      0                       # What write queue length does an incoming req see
system.mem_ctrls.wrQLenPdf::63                      0                       # What write queue length does an incoming req see
system.mem_ctrls.bytesPerActivate::samples        20796                       # Bytes accessed per row activation
system.mem_ctrls.bytesPerActivate::mean    224.458550                       # Bytes accessed per row activation
system.mem_ctrls.bytesPerActivate::gmean   183.913199                       # Bytes accessed per row activation
system.mem_ctrls.bytesPerActivate::stdev   176.096078                       # Bytes accessed per row activation
system.mem_ctrls.bytesPerActivate::0-127          629      3.02%      3.02% # Bytes accessed per row activation
system.mem_ctrls.bytesPerActivate::128-255        12477     60.00%     63.02% # Bytes accessed per row activation
system.mem_ctrls.bytesPerActivate::256-383         4250     20.44%     83.46% # Bytes accessed per row activation
system.mem_ctrls.bytesPerActivate::384-511         1416      6.81%     90.27% # Bytes accessed per row activation
system.mem_ctrls.bytesPerActivate::512-639          949      4.56%     94.83% # Bytes accessed per row activation
system.mem_ctrls.bytesPerActivate::640-767          475      2.28%     97.11% # Bytes accessed per row activation
system.mem_ctrls.bytesPerActivate::768-895          196      0.94%     98.06% # Bytes accessed per row activation
system.mem_ctrls.bytesPerActivate::896-1023          153      0.74%     98.79% # Bytes accessed per row activation
system.mem_ctrls.bytesPerActivate::1024-1151          251      1.21%    100.00% # Bytes accessed per row activation
system.mem_ctrls.bytesPerActivate::total        20796                       # Bytes accessed per row activation
system.mem_ctrls.rdPerTurnAround::samples         1548                       # Reads before turning the bus around for writes
system.mem_ctrls.rdPerTurnAround::mean      29.089147                       # Reads before turning the bus around for writes
system.mem_ctrls.rdPerTurnAround::gmean     18.644683                       # Reads before turning the bus around for writes
system.mem_ctrls.rdPerTurnAround::stdev    366.546891                       # Reads before turning the bus around for writes
system.mem_ctrls.rdPerTurnAround::0-511          1545     99.81%     99.81% # Reads before turning the bus around for writes
system.mem_ctrls.rdPerTurnAround::512-1023            2      0.13%     99.94% # Reads before turning the bus around for writes
system.mem_ctrls.rdPerTurnAround::14336-14847            1      0.06%    100.00% # Reads before turning the bus around for writes
system.mem_ctrls.rdPerTurnAround::total          1548                       # Reads before turning the bus around for writes
system.mem_ctrls.wrPerTurnAround::samples         1548                       # Writes before turning the bus around for reads
[...]
system.cpu.icache.ReadReq_mshr_miss_latency::.cpu.inst  11539294000                       # number of ReadReq MSHR miss cycles
system.cpu.icache.ReadReq_mshr_miss_latency::total  11539294000                       # number of ReadReq MSHR miss cycles
system.cpu.icache.ReadReq_mshr_miss_rate::.cpu.inst     0.035228                       # mshr miss rate for ReadReq accesses
system.cpu.icache.ReadReq_mshr_miss_rate::total     0.035228                       # mshr miss rate for ReadReq accesses
system.cpu.icache.ReadReq_avg_mshr_miss_latency::.cpu.inst 12179.471374                       # average ReadReq mshr miss latency
system.cpu.icache.ReadReq_avg_mshr_miss_latency::total 12179.471374                       # average ReadReq mshr miss latency
system.cpu.icache.tags.pwrStateResidencyTicks::UNDEFINED  66747151000                       # Cumulative time (in ticks) in various power states
system.cpu.icache.tags.tagsinuse           224.937513                       # Cycle average of tags in use
system.cpu.icache.tags.total_refs            26894588                       # Total number of references to valid blocks.
system.cpu.icache.tags.sampled_refs            947438                       # Sample count of references to valid blocks.
system.cpu.icache.tags.avg_refs             28.386647                       # Average number of references to valid blocks.
system.cpu.icache.tags.warmup_cycle             92500                       # Cycle when the warmup percentage was hit.
system.cpu.icache.tags.occ_blocks::.cpu.inst   224.937513                       # Average occupied blocks per requestor
system.cpu.icache.tags.occ_percent::.cpu.inst     0.878662                       # Average percentage of cache occupancy
system.cpu.icache.tags.occ_percent::total     0.878662                       # Average percentage of cache occupancy
system.cpu.icache.tags.occ_task_id_blocks::1024          225                       # Occupied blocks per task id
system.cpu.icache.tags.age_task_id_blocks_1024::0           15                       # Occupied blocks per task id
system.cpu.icache.tags.age_task_id_blocks_1024::2            6                       # Occupied blocks per task id
system.cpu.icache.tags.age_task_id_blocks_1024::3            1                       # Occupied blocks per task id
system.cpu.icache.tags.age_task_id_blocks_1024::4          203                       # Occupied blocks per task id
system.cpu.icache.tags.occ_task_id_percent::1024     0.878906                       # Percentage of cache occupancy per task id
system.cpu.icache.tags.tag_accesses          54736614                       # Number of tag accesses
system.cpu.icache.tags.data_accesses         54736614                       # Number of data accesses
system.cpu.dtb.walker.pwrStateResidencyTicks::UNDEFINED  66747151000                       # Cumulative time (in ticks) in various power states
system.cpu.dtb.stage2_mmu.stage2_tlb.walker.pwrStateResidencyTicks::UNDEFINED  66747151000                       # Cumulative time (in ticks) in various power states
system.cpu.dcache.pwrStateResidencyTicks::UNDEFINED  66747151000                       # Cumulative time (in ticks) in various power states
system.cpu.dcache.demand_hits::.cpu.data     34788403                       # number of demand (read+write) hits
system.cpu.dcache.demand_hits::total         34788403                       # number of demand (read+write) hits
system.cpu.dcache.overall_hits::.cpu.data     34791731                       # number of overall hits
system.cpu.dcache.overall_hits::total        34791731                       # number of overall hits
system.cpu.dcache.demand_misses::.cpu.data        48201                       # number of demand (read+write) misses
system.cpu.dcache.demand_misses::total          48201                       # number of demand (read+write) misses
system.cpu.dcache.overall_misses::.cpu.data        48234                       # number of overall misses
system.cpu.dcache.overall_misses::total         48234                       # number of overall misses
system.cpu.dcache.demand_miss_latency::.cpu.data   2901866000                       # number of demand (read+write) miss cycles
system.cpu.dcache.demand_miss_latency::total   2901866000                       # number of demand (read+write) miss cycles
system.cpu.dcache.overall_miss_latency::.cpu.data   2901866000                       # number of overall miss cycles
system.cpu.dcache.overall_miss_latency::total   2901866000                       # number of overall miss cycles
system.cpu.dcache.demand_accesses::.cpu.data     34836604                       # number of demand (read+write) accesses
system.cpu.dcache.demand_accesses::total     34836604                       # number of demand (read+write) accesses
system.cpu.dcache.overall_accesses::.cpu.data     34839965                       # number of overall (read+write) accesses
system.cpu.dcache.overall_accesses::total     34839965                       # number of overall (read+write) accesses
system.cpu.dcache.demand_miss_rate::.cpu.data     0.001384                       # miss rate for demand accesses
system.cpu.dcache.demand_miss_rate::total     0.001384                       # miss rate for demand accesses
system.cpu.dcache.overall_miss_rate::.cpu.data     0.001384                       # miss rate for overall accesses
system.cpu.dcache.overall_miss_rate::total     0.001384                       # miss rate for overall accesses
system.cpu.dcache.demand_avg_miss_latency::.cpu.data 60203.439763                       # average overall miss latency
system.cpu.dcache.demand_avg_miss_latency::total 60203.439763                       # average overall miss latency
system.cpu.dcache.overall_avg_miss_latency::.cpu.data 60162.250695                       # average overall miss latency
system.cpu.dcache.overall_avg_miss_latency::total 60162.250695                       # average overall miss latency
system.cpu.dcache.blocked_cycles::no_mshrs            0                       # number of cycles access was blocked
system.cpu.dcache.blocked_cycles::no_targets            0                       # number of cycles access was blocked
system.cpu.dcache.blocked::no_mshrs                 0                       # number of cycles access was blocked
system.cpu.dcache.blocked::no_targets               0                       # number of cycles access was blocked
system.cpu.dcache.avg_blocked_cycles::no_mshrs          nan                       # average number of cycles each access was blocked
system.cpu.dcache.avg_blocked_cycles::no_targets          nan                       # average number of cycles each access was blocked
system.cpu.dcache.writebacks::.writebacks        33266                       # number of writebacks
system.cpu.dcache.writebacks::total             33266                       # number of writebacks
system.cpu.dcache.demand_mshr_hits::.cpu.data        10797                       # number of demand (read+write) MSHR hits
system.cpu.dcache.demand_mshr_hits::total        10797                       # number of demand (read+write) MSHR hits
system.cpu.dcache.overall_mshr_hits::.cpu.data        10797                       # number of overall MSHR hits
system.cpu.dcache.overall_mshr_hits::total        10797                       # number of overall MSHR hits
system.cpu.dcache.demand_mshr_misses::.cpu.data        37404                       # number of demand (read+write) MSHR misses
system.cpu.dcache.demand_mshr_misses::total        37404                       # number of demand (read+write) MSHR misses
system.cpu.dcache.overall_mshr_misses::.cpu.data        37421                       # number of overall MSHR misses
system.cpu.dcache.overall_mshr_misses::total        37421                       # number of overall MSHR misses
system.cpu.dcache.demand_mshr_miss_latency::.cpu.data   2215806500                       # number of demand (read+write) MSHR miss cycles
system.cpu.dcache.demand_mshr_miss_latency::total   2215806500                       # number of demand (read+write) MSHR miss cycles
system.cpu.dcache.overall_mshr_miss_latency::.cpu.data   2216656000                       # number of overall MSHR miss cycles
system.cpu.dcache.overall_mshr_miss_latency::total   2216656000                       # number of overall MSHR miss cycles
system.cpu.dcache.demand_mshr_miss_rate::.cpu.data     0.001074                       # mshr miss rate for demand accesses
system.cpu.dcache.demand_mshr_miss_rate::total     0.001074                       # mshr miss rate for demand accesses
system.cpu.dcache.overall_mshr_miss_rate::.cpu.data     0.001074                       # mshr miss rate for overall accesses
system.cpu.dcache.overall_mshr_miss_rate::total     0.001074                       # mshr miss rate for overall accesses
system.cpu.dcache.demand_avg_mshr_miss_latency::.cpu.data 59239.827291                       # average overall mshr miss latency
system.cpu.dcache.demand_avg_mshr_miss_latency::total 59239.827291                       # average overall mshr miss latency
system.cpu.dcache.overall_avg_mshr_miss_latency::.cpu.data 59235.616365                       # average overall mshr miss latency
system.cpu.dcache.overall_avg_mshr_miss_latency::total 59235.616365                       # average overall mshr miss latency
system.cpu.dcache.replacements                  36909                       # number of replacements
system.cpu.dcache.ReadReq_hits::.cpu.data     20606519                       # number of ReadReq hits
system.cpu.dcache.ReadReq_hits::total        20606519                       # number of ReadReq hits
system.cpu.dcache.ReadReq_misses::.cpu.data        19908                       # number of ReadReq misses
system.cpu.dcache.ReadReq_misses::total         19908                       # number of ReadReq misses
system.cpu.dcache.ReadReq_miss_latency::.cpu.data    504495000                       # number of ReadReq miss cycles
system.cpu.dcache.ReadReq_miss_latency::total    504495000                       # number of ReadReq miss cycles
system.cpu.dcache.ReadReq_accesses::.cpu.data     20626427                       # number of ReadReq accesses(hits+misses)
system.cpu.dcache.ReadReq_accesses::total     20626427                       # number of ReadReq accesses(hits+misses)
system.cpu.dcache.ReadReq_miss_rate::.cpu.data     0.000965                       # miss rate for ReadReq accesses
system.cpu.dcache.ReadReq_miss_rate::total     0.000965                       # miss rate for ReadReq accesses
system.cpu.dcache.ReadReq_avg_miss_latency::.cpu.data 25341.320072                       # average ReadReq miss latency
system.cpu.dcache.ReadReq_avg_miss_latency::total 25341.320072                       # average ReadReq miss latency
system.cpu.dcache.ReadReq_mshr_hits::.cpu.data         2230                       # number of ReadReq MSHR hits
system.cpu.dcache.ReadReq_mshr_hits::total         2230                       # number of ReadReq MSHR hits
system.cpu.dcache.ReadReq_mshr_misses::.cpu.data        17678                       # number of ReadReq MSHR misses
system.cpu.dcache.ReadReq_mshr_misses::total        17678                       # number of ReadReq MSHR misses
system.cpu.dcache.ReadReq_mshr_miss_latency::.cpu.data    448843500                       # number of ReadReq MSHR miss cycles
system.cpu.dcache.ReadReq_mshr_miss_latency::total    448843500                       # number of ReadReq MSHR miss cycles
system.cpu.dcache.ReadReq_mshr_miss_rate::.cpu.data     0.000857                       # mshr miss rate for ReadReq accesses
system.cpu.dcache.ReadReq_mshr_miss_rate::total     0.000857                       # mshr miss rate for ReadReq accesses
system.cpu.dcache.ReadReq_avg_mshr_miss_latency::.cpu.data 25389.947958                       # average ReadReq mshr miss latency
system.cpu.dcache.ReadReq_avg_mshr_miss_latency::total 25389.947958                       # average ReadReq mshr miss latency
system.cpu.dcache.WriteReq_hits::.cpu.data     14181884                       # number of WriteReq hits
system.cpu.dcache.WriteReq_hits::total       14181884                       # number of WriteReq hits
system.cpu.dcache.WriteReq_misses::.cpu.data        28293                       # number of WriteReq misses
system.cpu.dcache.WriteReq_misses::total        28293                       # number of WriteReq misses
system.cpu.dcache.WriteReq_miss_latency::.cpu.data   2397371000                       # number of WriteReq miss cycles
system.cpu.dcache.WriteReq_miss_latency::total   2397371000                       # number of WriteReq miss cycles
system.cpu.dcache.WriteReq_accesses::.cpu.data     14210177                       # number of WriteReq accesses(hits+misses)
system.cpu.dcache.WriteReq_accesses::total     14210177                       # number of WriteReq accesses(hits+misses)
system.cpu.dcache.WriteReq_miss_rate::.cpu.data     0.001991                       # miss rate for WriteReq accesses
system.cpu.dcache.WriteReq_miss_rate::total     0.001991                       # miss rate for WriteReq accesses
system.cpu.dcache.WriteReq_avg_miss_latency::.cpu.data 84733.715053                       # average WriteReq miss latency
system.cpu.dcache.WriteReq_avg_miss_latency::total 84733.715053                       # average WriteReq miss latency
system.cpu.dcache.WriteReq_mshr_hits::.cpu.data         8567                       # number of WriteReq MSHR hits
system.cpu.dcache.WriteReq_mshr_hits::total         8567                       # number of WriteReq MSHR hits
system.cpu.dcache.WriteReq_mshr_misses::.cpu.data        19726                       # number of WriteReq MSHR misses
system.cpu.dcache.WriteReq_mshr_misses::total        19726                       # number of WriteReq MSHR misses
system.cpu.dcache.WriteReq_mshr_miss_latency::.cpu.data   1766963000                       # number of WriteReq MSHR miss cycles
system.cpu.dcache.WriteReq_mshr_miss_latency::total   1766963000                       # number of WriteReq MSHR miss cycles
system.cpu.dcache.WriteReq_mshr_miss_rate::.cpu.data     0.001388                       # mshr miss rate for WriteReq accesses
system.cpu.dcache.WriteReq_mshr_miss_rate::total     0.001388                       # mshr miss rate for WriteReq accesses
system.cpu.dcache.WriteReq_avg_mshr_miss_latency::.cpu.data 89575.332049                       # average WriteReq mshr miss latency
system.cpu.dcache.WriteReq_avg_mshr_miss_latency::total 89575.332049                       # average WriteReq mshr miss latency
system.cpu.dcache.SoftPFReq_hits::.cpu.data         3328                       # number of SoftPFReq hits
system.cpu.dcache.SoftPFReq_hits::total          3328                       # number of SoftPFReq hits
system.cpu.dcache.SoftPFReq_misses::.cpu.data           33                       # number of SoftPFReq misses
system.cpu.dcache.SoftPFReq_misses::total           33                       # number of SoftPFReq misses
system.cpu.dcache.SoftPFReq_accesses::.cpu.data         3361                       # number of SoftPFReq accesses(hits+misses)
system.cpu.dcache.SoftPFReq_accesses::total         3361                       # number of SoftPFReq accesses(hits+misses)
system.cpu.dcache.SoftPFReq_miss_rate::.cpu.data     0.009819                       # miss rate for SoftPFReq accesses
system.cpu.dcache.SoftPFReq_miss_rate::total     0.009819                       # miss rate for SoftPFReq accesses
system.cpu.dcache.SoftPFReq_mshr_misses::.cpu.data           17                       # number of SoftPFReq MSHR misses
system.cpu.dcache.SoftPFReq_mshr_misses::total           17                       # number of SoftPFReq MSHR misses
system.cpu.dcache.SoftPFReq_mshr_miss_latency::.cpu.data       849500                       # number of SoftPFReq MSHR miss cycles
system.cpu.dcache.SoftPFReq_mshr_miss_latency::total       849500                       # number of SoftPFReq MSHR miss cycles
system.cpu.dcache.SoftPFReq_mshr_miss_rate::.cpu.data     0.005058                       # mshr miss rate for SoftPFReq accesses
system.cpu.dcache.SoftPFReq_mshr_miss_rate::total     0.005058                       # mshr miss rate for SoftPFReq accesses
system.cpu.dcache.SoftPFReq_avg_mshr_miss_latency::.cpu.data 49970.588235                       # average SoftPFReq mshr miss latency
system.cpu.dcache.SoftPFReq_avg_mshr_miss_latency::total 49970.588235                       # average SoftPFReq mshr miss latency
system.cpu.dcache.LoadLockedReq_hits::.cpu.data        89082                       # number of LoadLockedReq hits
system.cpu.dcache.LoadLockedReq_hits::total        89082                       # number of LoadLockedReq hits
system.cpu.dcache.LoadLockedReq_accesses::.cpu.data        89082                       # number of LoadLockedReq accesses(hits+misses)
system.cpu.dcache.LoadLockedReq_accesses::total        89082                       # number of LoadLockedReq accesses(hits+misses)
system.cpu.dcache.StoreCondReq_hits::.cpu.data        89082                       # number of StoreCondReq hits
system.cpu.dcache.StoreCondReq_hits::total        89082                       # number of StoreCondReq hits
system.cpu.dcache.StoreCondReq_accesses::.cpu.data        89082                       # number of StoreCondReq accesses(hits+misses)
system.cpu.dcache.StoreCondReq_accesses::total        89082                       # number of StoreCondReq accesses(hits+misses)
system.cpu.dcache.tags.pwrStateResidencyTicks::UNDEFINED  66747151000                       # Cumulative time (in ticks) in various power states
system.cpu.dcache.tags.tagsinuse           510.562788                       # Cycle average of tags in use
system.cpu.dcache.tags.total_refs            35007316                       # Total number of references to valid blocks.
system.cpu.dcache.tags.sampled_refs             37421                       # Sample count of references to valid blocks.
system.cpu.dcache.tags.avg_refs            935.499212                       # Average number of references to valid blocks.
system.cpu.dcache.tags.warmup_cycle            210500                       # Cycle when the warmup percentage was hit.
system.cpu.dcache.tags.occ_blocks::.cpu.data   510.562788                       # Average occupied blocks per requestor
system.cpu.dcache.tags.occ_percent::.cpu.data     0.997193                       # Average percentage of cache occupancy
system.cpu.dcache.tags.occ_percent::total     0.997193                       # Average percentage of cache occupancy
system.cpu.dcache.tags.occ_task_id_blocks::1024          512                       # Occupied blocks per task id
system.cpu.dcache.tags.age_task_id_blocks_1024::0            3                       # Occupied blocks per task id
system.cpu.dcache.tags.age_task_id_blocks_1024::1           34                       # Occupied blocks per task id
system.cpu.dcache.tags.age_task_id_blocks_1024::2          274                       # Occupied blocks per task id
system.cpu.dcache.tags.age_task_id_blocks_1024::3          180                       # Occupied blocks per task id
system.cpu.dcache.tags.age_task_id_blocks_1024::4           21                       # Occupied blocks per task id
system.cpu.dcache.tags.occ_task_id_percent::1024            1                       # Percentage of cache occupancy per task id
system.cpu.dcache.tags.tag_accesses          70073679                       # Number of tag accesses
system.cpu.dcache.tags.data_accesses         70073679                       # Number of data accesses
system.cpu.itb.walker.pwrStateResidencyTicks::UNDEFINED  66747151000                       # Cumulative time (in ticks) in various power states
system.cpu.itb.stage2_mmu.stage2_tlb.walker.pwrStateResidencyTicks::UNDEFINED  66747151000                       # Cumulative time (in ticks) in various power states

---------- End Simulation Statistics   ----------
