
---------- Begin Simulation Statistics ----------
final_tick                                83117510000                       # Number of ticks from beginning of simulation (restored from checkpoints and never reset)
host_inst_rate                                 231098                       # Simulator instruction rate (inst/s)
host_mem_usage                                 684988                       # Number of bytes of host memory used
host_op_rate                                   231552                       # Simulator op (including micro ops) rate (op/s)
host_seconds                                   432.72                       # Real time elapsed on the host
host_tick_rate                              192083260                       # Simulator tick rate (ticks/s)
sim_freq                                 1000000000000                       # Frequency of simulated ticks
sim_insts                                   100000001                       # Number of instructions simulated
sim_ops                                     100196363                       # Number of ops (including micro ops) simulated
sim_seconds                                  0.083118                       # Number of seconds simulated
sim_ticks                                 83117510000                       # Number of ticks simulated
system.cpu.branchPred.BTBCorrect                    0                       # Number of correct BTB predictions (this stat may not work properly.
system.cpu.branchPred.BTBHitPct             99.617639                       # BTB Hit Percentage
system.cpu.branchPred.BTBHits                 2096250                       # Number of BTB hits
system.cpu.branchPred.BTBLookups              2104296                       # Number of BTB lookups
system.cpu.branchPred.RASInCorrect                  5                       # Number of incorrect RAS predictions.
system.cpu.branchPred.condIncorrect             81379                       # Number of conditional branches incorrect
system.cpu.branchPred.condPredicted           3728724                       # Number of conditional branches predicted
system.cpu.branchPred.indirectHits                301                       # Number of indirect target hits.
system.cpu.branchPred.indirectLookups            1019                       # Number of indirect predictor lookups.
system.cpu.branchPred.indirectMisses              718                       # Number of indirect misses.
system.cpu.branchPred.lookups                 4479113                       # Number of BP lookups
system.cpu.branchPred.usedRAS                   65350                       # Number of times the RAS was used to get a target.
system.cpu.branchPredindirectMispredicted          163                       # Number of mispredicted indirect branches.
system.cpu.committedInsts                   100000001                       # Number of instructions committed
system.cpu.committedOps                     100196363                       # Number of ops (including micro ops) committed
system.cpu.cpi                               1.662350                       # CPI: cycles per instruction
system.cpu.discardedOps                        190771                       # Number of ops (including micro ops) which were discarded before commit
system.cpu.dtb.accesses                             0                       # DTB accesses
system.cpu.dtb.align_faults                         0                       # Number of TLB faults due to alignment restrictions
system.cpu.dtb.domain_faults                        0                       # Number of TLB faults due to domain restrictions
system.cpu.dtb.flush_entries                        0                       # Number of entries that have been flushed from TLB
system.cpu.dtb.flush_tlb                            0                       # Number of times complete TLB was flushed
system.cpu.dtb.flush_tlb_asid                       0                       # Number of times TLB was flushed by ASID
system.cpu.dtb.flush_tlb_mva                        0                       # Number of times TLB was flushed by MVA
system.cpu.dtb.flush_tlb_mva_asid                   0                       # Number of times TLB was flushed by MVA & ASID
system.cpu.dtb.hits                                 0                       # DTB hits
system.cpu.dtb.inst_accesses                        0                       # ITB inst accesses
system.cpu.dtb.inst_hits                            0                       # ITB inst hits
system.cpu.dtb.inst_misses                          0                       # ITB inst misses
system.cpu.dtb.misses                               0                       # DTB misses
system.cpu.dtb.perms_faults                         0                       # Number of TLB faults due to permissions restrictions
system.cpu.dtb.prefetch_faults                      0                       # Number of TLB faults due to prefetch
system.cpu.dtb.read_accesses                        0                       # DTB read accesses
system.cpu.dtb.read_hits                            0                       # DTB read hits
system.cpu.dtb.read_misses                          0                       # DTB read misses
system.cpu.dtb.stage2_mmu.stage2_tlb.accesses            0                       # DTB accesses
system.cpu.dtb.stage2_mmu.stage2_tlb.align_faults            0                       # Number of TLB faults due to alignment restrictions
system.cpu.dtb.stage2_mmu.stage2_tlb.domain_faults            0                       # Number of TLB faults due to domain restrictions
system.cpu.dtb.stage2_mmu.stage2_tlb.flush_entries            0                       # Number of entries that have been flushed from TLB
system.cpu.dtb.stage2_mmu.stage2_tlb.flush_tlb            0                       # Number of times complete TLB was flushed
system.cpu.dtb.stage2_mmu.stage2_tlb.flush_tlb_asid            0                       # Number of times TLB was flushed by ASID
system.cpu.dtb.stage2_mmu.stage2_tlb.flush_tlb_mva            0                       # Number of times TLB was flushed by MVA
system.cpu.dtb.stage2_mmu.stage2_tlb.flush_tlb_mva_asid            0                       # Number of times TLB was flushed by MVA & ASID
system.cpu.dtb.stage2_mmu.stage2_tlb.hits            0                       # DTB hits
system.cpu.dtb.stage2_mmu.stage2_tlb.inst_accesses            0                       # ITB inst accesses
system.cpu.dtb.stage2_mmu.stage2_tlb.inst_hits            0                       # ITB inst hits
system.cpu.dtb.stage2_mmu.stage2_tlb.inst_misses            0                       # ITB inst misses
system.cpu.dtb.stage2_mmu.stage2_tlb.misses            0                       # DTB misses
system.cpu.dtb.stage2_mmu.stage2_tlb.perms_faults            0                       # Number of TLB faults due to permissions restrictions
system.cpu.dtb.stage2_mmu.stage2_tlb.prefetch_faults            0                       # Number of TLB faults due to prefetch
system.cpu.dtb.stage2_mmu.stage2_tlb.read_accesses            0                       # DTB read accesses
system.cpu.dtb.stage2_mmu.stage2_tlb.read_hits            0                       # DTB read hits
system.cpu.dtb.stage2_mmu.stage2_tlb.read_misses            0                       # DTB read misses
system.cpu.dtb.stage2_mmu.stage2_tlb.walker.walkRequestOrigin_Requested::Data            0                       # Table walker requests started/completed, data/inst
system.cpu.dtb.stage2_mmu.stage2_tlb.walker.walkRequestOrigin_Requested::Inst            0                       # Table walker requests started/completed, data/inst
system.cpu.dtb.stage2_mmu.stage2_tlb.walker.walkRequestOrigin_Requested::total            0                       # Table walker requests started/completed, data/inst
system.cpu.dtb.stage2_mmu.stage2_tlb.walker.walkRequestOrigin_Completed::Data            0                       # Table walker requests started/completed, data/inst
system.cpu.dtb.stage2_mmu.stage2_tlb.walker.walkRequestOrigin_Completed::Inst            0                       # Table walker requests started/completed, data/inst
system.cpu.dtb.stage2_mmu.stage2_tlb.walker.walkRequestOrigin_Completed::total            0                       # Table walker requests started/completed, data/inst
system.cpu.dtb.stage2_mmu.stage2_tlb.walker.walkRequestOrigin::total            0                       # Table walker requests started/completed, data/inst
system.cpu.dtb.stage2_mmu.stage2_tlb.walker.walks            0                       # Table walker walks requested
system.cpu.dtb.stage2_mmu.stage2_tlb.write_accesses            0                       # DTB write accesses
system.cpu.dtb.stage2_mmu.stage2_tlb.write_hits            0                       # DTB write hits
system.cpu.dtb.stage2_mmu.stage2_tlb.write_misses            0                       # DTB write misses
system.cpu.dtb.walker.walkRequestOrigin_Requested::Data            0                       # Table walker requests started/completed, data/inst
system.cpu.dtb.walker.walkRequestOrigin_Requested::Inst            0                       # Table walker requests started/completed, data/inst
system.cpu.dtb.walker.walkRequestOrigin_Requested::total            0                       # Table walker requests started/completed, data/inst
system.cpu.dtb.walker.walkRequestOrigin_Completed::Data            0                       # Table walker requests started/completed, data/inst
system.cpu.dtb.walker.walkRequestOrigin_Completed::Inst            0                       # Table walker requests started/completed, data/inst
system.cpu.dtb.walker.walkRequestOrigin_Completed::total            0                       # Table walker requests started/completed, data/inst
system.cpu.dtb.walker.walkRequestOrigin::total            0                       # Table walker requests started/completed, data/inst
system.cpu.dtb.walker.walks                         0                       # Table walker walks requested
system.cpu.dtb.write_accesses                       0                       # DTB write accesses
system.cpu.dtb.write_hits                           0                       # DTB write hits
system.cpu.dtb.write_misses                         0                       # DTB write misses
system.cpu.fetch2.amo_instructions                  0                       # Number of memory atomic instructions successfully decoded
system.cpu.fetch2.fp_instructions                   0                       # Number of floating point instructions successfully decoded
system.cpu.fetch2.int_instructions           42615023                       # Number of integer instructions successfully decoded
system.cpu.fetch2.load_instructions          43408301                       # Number of memory load instructions successfully decoded
system.cpu.fetch2.store_instructions         11002270                       # Number of memory store instructions successfully decoded
system.cpu.fetch2.vec_instructions                  0                       # Number of SIMD instructions successfully decoded
system.cpu.idleCycles                        33731051                       # Total number of cycles that the object has spent stopped
system.cpu.ipc                               0.601558                       # IPC: instructions per cycle
system.cpu.itb.accesses                             0                       # DTB accesses
system.cpu.itb.align_faults                         0                       # Number of TLB faults due to alignment restrictions
system.cpu.itb.domain_faults                        0                       # Number of TLB faults due to domain restrictions
system.cpu.itb.flush_entries                        0                       # Number of entries that have been flushed from TLB
system.cpu.itb.flush_tlb                            0                       # Number of times complete TLB was flushed
system.cpu.itb.flush_tlb_asid                       0                       # Number of times TLB was flushed by ASID
system.cpu.itb.flush_tlb_mva                        0                       # Number of times TLB was flushed by MVA
system.cpu.itb.flush_tlb_mva_asid                   0                       # Number of times TLB was flushed by MVA & ASID
system.cpu.itb.hits                                 0                       # DTB hits
system.cpu.itb.inst_accesses                        0                       # ITB inst accesses
system.cpu.itb.inst_hits                            0                       # ITB inst hits
system.cpu.itb.inst_misses                          0                       # ITB inst misses
system.cpu.itb.misses                               0                       # DTB misses
system.cpu.itb.perms_faults                         0                       # Number of TLB faults due to permissions restrictions
system.cpu.itb.prefetch_faults                      0                       # Number of TLB faults due to prefetch
system.cpu.itb.read_accesses                        0                       # DTB read accesses
system.cpu.itb.read_hits                            0                       # DTB read hits
system.cpu.itb.read_misses                          0                       # DTB read misses
system.cpu.itb.stage2_mmu.stage2_tlb.accesses            0                       # DTB accesses
system.cpu.itb.stage2_mmu.stage2_tlb.align_faults            0                       # Number of TLB faults due to alignment restrictions
system.cpu.itb.stage2_mmu.stage2_tlb.domain_faults            0                       # Number of TLB faults due to domain restrictions
system.cpu.itb.stage2_mmu.stage2_tlb.flush_entries            0                       # Number of entries that have been flushed from TLB
system.cpu.itb.stage2_mmu.stage2_tlb.flush_tlb            0                       # Number of times complete TLB was flushed
system.cpu.itb.stage2_mmu.stage2_tlb.flush_tlb_asid            0                       # Number of times TLB was flushed by ASID
system.cpu.itb.stage2_mmu.stage2_tlb.flush_tlb_mva            0                       # Number of times TLB was flushed by MVA
system.cpu.itb.stage2_mmu.stage2_tlb.flush_tlb_mva_asid            0                       # Number of times TLB was flushed by MVA & ASID
system.cpu.itb.stage2_mmu.stage2_tlb.hits            0                       # DTB hits
system.cpu.itb.stage2_mmu.stage2_tlb.inst_accesses            0                       # ITB inst accesses
system.cpu.itb.stage2_mmu.stage2_tlb.inst_hits            0                       # ITB inst hits
system.cpu.itb.stage2_mmu.stage2_tlb.inst_misses            0                       # ITB inst misses
system.cpu.itb.stage2_mmu.stage2_tlb.misses            0                       # DTB misses
system.cpu.itb.stage2_mmu.stage2_tlb.perms_faults            0                       # Number of TLB faults due to permissions restrictions
system.cpu.itb.stage2_mmu.stage2_tlb.prefetch_faults            0                       # Number of TLB faults due to prefetch
system.cpu.itb.stage2_mmu.stage2_tlb.read_accesses            0                       # DTB read accesses
system.cpu.itb.stage2_mmu.stage2_tlb.read_hits            0                       # DTB read hits
system.cpu.itb.stage2_mmu.stage2_tlb.read_misses            0                       # DTB read misses
system.cpu.itb.stage2_mmu.stage2_tlb.walker.walkRequestOrigin_Requested::Data            0                       # Table walker requests started/completed, data/inst
system.cpu.itb.stage2_mmu.stage2_tlb.walker.walkRequestOrigin_Requested::Inst            0                       # Table walker requests started/completed, data/inst
system.cpu.itb.stage2_mmu.stage2_tlb.walker.walkRequestOrigin_Requested::total            0                       # Table walker requests started/completed, data/inst
system.cpu.itb.stage2_mmu.stage2_tlb.walker.walkRequestOrigin_Completed::Data            0                       # Table walker requests started/completed, data/inst
system.cpu.itb.stage2_mmu.stage2_tlb.walker.walkRequestOrigin_Completed::Inst            0                       # Table walker requests started/completed, data/inst
system.cpu.itb.stage2_mmu.stage2_tlb.walker.walkRequestOrigin_Completed::total            0                       # Table walker requests started/completed, data/inst
system.cpu.itb.stage2_mmu.stage2_tlb.walker.walkRequestOrigin::total            0                       # Table walker requests started/completed, data/inst
system.cpu.itb.stage2_mmu.stage2_tlb.walker.walks            0                       # Table walker walks requested
system.cpu.itb.stage2_mmu.stage2_tlb.write_accesses            0                       # DTB write accesses
system.cpu.itb.stage2_mmu.stage2_tlb.write_hits            0                       # DTB write hits
system.cpu.itb.stage2_mmu.stage2_tlb.write_misses            0                       # DTB write misses
system.cpu.itb.walker.walkRequestOrigin_Requested::Data            0                       # Table walker requests started/completed, data/inst
system.cpu.itb.walker.walkRequestOrigin_Requested::Inst            0                       # Table walker requests started/completed, data/inst
system.cpu.itb.walker.walkRequestOrigin_Requested::total            0                       # Table walker requests started/completed, data/inst
system.cpu.itb.walker.walkRequestOrigin_Completed::Data            0                       # Table walker requests started/completed, data/inst
system.cpu.itb.walker.walkRequestOrigin_Completed::Inst            0                       # Table walker requests started/completed, data/inst
system.cpu.itb.walker.walkRequestOrigin_Completed::total            0                       # Table walker requests started/completed, data/inst
system.cpu.itb.walker.walkRequestOrigin::total            0                       # Table walker requests started/completed, data/inst
system.cpu.itb.walker.walks                         0                       # Table walker walks requested
system.cpu.itb.write_accesses                       0                       # DTB write accesses
system.cpu.itb.write_hits                           0                       # DTB write hits
system.cpu.itb.write_misses                         0                       # DTB write misses
system.cpu.numCycles                        166235020                       # number of cpu cycles simulated
system.cpu.numFetchSuspends                         0                       # Number of times Execute suspended instruction fetching
system.cpu.numWorkItemsCompleted                    0                       # number of work items this cpu completed
system.cpu.numWorkItemsStarted                      0                       # number of work items this cpu started
system.cpu.op_class_0::No_OpClass                   0      0.00%      0.00% # Class of committed instruction
system.cpu.op_class_0::IntAlu                46531400     46.44%     46.44% # Class of committed instruction
system.cpu.op_class_0::IntMult                  20720      0.02%     46.46% # Class of committed instruction
system.cpu.op_class_0::IntDiv                       0      0.00%     46.46% # Class of committed instruction
system.cpu.op_class_0::FloatAdd                     0      0.00%     46.46% # Class of committed instruction
system.cpu.op_class_0::FloatCmp                     0      0.00%     46.46% # Class of committed instruction
system.cpu.op_class_0::FloatCvt                     0      0.00%     46.46% # Class of committed instruction
system.cpu.op_class_0::FloatMult                    0      0.00%     46.46% # Class of committed instruction
system.cpu.op_class_0::FloatMultAcc                 0      0.00%     46.46% # Class of committed instruction
system.cpu.op_class_0::FloatDiv                     0      0.00%     46.46% # Class of committed instruction
system.cpu.op_class_0::FloatMisc                    0      0.00%     46.46% # Class of committed instruction
system.cpu.op_class_0::FloatSqrt                    0      0.00%     46.46% # Class of committed instruction
system.cpu.op_class_0::SimdAdd                      0      0.00%     46.46% # Class of committed instruction
system.cpu.op_class_0::SimdAddAcc                   0      0.00%     46.46% # Class of committed instruction
system.cpu.op_class_0::SimdAlu                      0      0.00%     46.46% # Class of committed instruction
system.cpu.op_class_0::SimdCmp                      0      0.00%     46.46% # Class of committed instruction
system.cpu.op_class_0::SimdCvt                      0      0.00%     46.46% # Class of committed instruction
system.cpu.op_class_0::SimdMisc                     0      0.00%     46.46% # Class of committed instruction
system.cpu.op_class_0::SimdMult                     0      0.00%     46.46% # Class of committed instruction
system.cpu.op_class_0::SimdMultAcc                  0      0.00%     46.46% # Class of committed instruction
system.cpu.op_class_0::SimdShift                    0      0.00%     46.46% # Class of committed instruction
system.cpu.op_class_0::SimdShiftAcc                 0      0.00%     46.46% # Class of committed instruction
system.cpu.op_class_0::SimdDiv                      0      0.00%     46.46% # Class of committed instruction
system.cpu.op_class_0::SimdSqrt                     0      0.00%     46.46% # Class of committed instruction
system.cpu.op_class_0::SimdFloatAdd                 0      0.00%     46.46% # Class of committed instruction
system.cpu.op_class_0::SimdFloatAlu                 0      0.00%     46.46% # Class of committed instruction
system.cpu.op_class_0::SimdFloatCmp                 0      0.00%     46.46% # Class of committed instruction
system.cpu.op_class_0::SimdFloatCvt                 0      0.00%     46.46% # Class of committed instruction
system.cpu.op_class_0::SimdFloatDiv                 0      0.00%     46.46% # Class of committed instruction
system.cpu.op_class_0::SimdFloatMisc               18      0.00%     46.46% # Class of committed instruction
system.cpu.op_class_0::SimdFloatMult                0      0.00%     46.46% # Class of committed instruction
system.cpu.op_class_0::SimdFloatMultAcc             0      0.00%     46.46% # Class of committed instruction
system.cpu.op_class_0::SimdFloatSqrt                0      0.00%     46.46% # Class of committed instruction
system.cpu.op_class_0::SimdReduceAdd                0      0.00%     46.46% # Class of committed instruction
system.cpu.op_class_0::SimdReduceAlu                0      0.00%     46.46% # Class of committed instruction
system.cpu.op_class_0::SimdReduceCmp                0      0.00%     46.46% # Class of committed instruction
system.cpu.op_class_0::SimdFloatReduceAdd            0      0.00%     46.46% # Class of committed instruction
system.cpu.op_class_0::SimdFloatReduceCmp            0      0.00%     46.46% # Class of committed instruction
system.cpu.op_class_0::SimdAes                      0      0.00%     46.46% # Class of committed instruction
system.cpu.op_class_0::SimdAesMix                   0      0.00%     46.46% # Class of committed instruction
system.cpu.op_class_0::SimdSha1Hash                 0      0.00%     46.46% # Class of committed instruction
system.cpu.op_class_0::SimdSha1Hash2                0      0.00%     46.46% # Class of committed instruction
system.cpu.op_class_0::SimdSha256Hash               0      0.00%     46.46% # Class of committed instruction
system.cpu.op_class_0::SimdSha256Hash2              0      0.00%     46.46% # Class of committed instruction
system.cpu.op_class_0::SimdShaSigma2                0      0.00%     46.46% # Class of committed instruction
system.cpu.op_class_0::SimdShaSigma3                0      0.00%     46.46% # Class of committed instruction
system.cpu.op_class_0::SimdPredAlu                  0      0.00%     46.46% # Class of committed instruction
system.cpu.op_class_0::MemRead               42693601     42.61%     89.07% # Class of committed instruction
system.cpu.op_class_0::MemWrite              10950624     10.93%    100.00% # Class of committed instruction
system.cpu.op_class_0::FloatMemRead                 0      0.00%    100.00% # Class of committed instruction
system.cpu.op_class_0::FloatMemWrite                0      0.00%    100.00% # Class of committed instruction
system.cpu.op_class_0::IprAccess                    0      0.00%    100.00% # Class of committed instruction
system.cpu.op_class_0::InstPrefetch                 0      0.00%    100.00% # Class of committed instruction
system.cpu.op_class_0::total                100196363                       # Class of committed instruction
system.cpu.tickCycles                       132503969                       # Number of cycles that the object actually ticked
system.cpu.workload.numSyscalls                    84                       # Number of system calls
system.membus.snoop_filter.hit_multi_requests            0                       # Number of requests hitting in the snoop filter with multiple (>1) holders of the requested data.
system.membus.snoop_filter.hit_multi_snoops            0                       # Number of snoops hitting in the snoop filter with multiple (>1) holders of the requested data.
system.membus.snoop_filter.hit_single_requests        75278                       # Number of requests hitting in the snoop filter with a single holder of the requested data.
system.membus.snoop_filter.hit_single_snoops            0                       # Number of snoops hitting in the snoop filter with a single holder of the requested data.
system.membus.snoop_filter.tot_requests        158836                       # Total number of requests made to the snoop filter.
system.membus.snoop_filter.tot_snoops               0                       # Total number of snoops made to the snoop filter.
system.tol2bus.snoop_filter.hit_multi_requests          304                       # Number of requests hitting in the snoop filter with multiple (>1) holders of the requested data.
system.tol2bus.snoop_filter.hit_multi_snoops            1                       # Number of snoops hitting in the snoop filter with multiple (>1) holders of the requested data.
system.tol2bus.snoop_filter.hit_single_requests       769664                       # Number of requests hitting in the snoop filter with a single holder of the requested data.
system.tol2bus.snoop_filter.hit_single_snoops          205                       # Number of snoops hitting in the snoop filter with a single holder of the requested data.
system.tol2bus.snoop_filter.tot_requests      1539700                       # Total number of requests made to the snoop filter.
system.tol2bus.snoop_filter.tot_snoops            206                       # Total number of snoops made to the snoop filter.
system.membus.pwrStateResidencyTicks::UNDEFINED  83117510000                       # Cumulative time (in ticks) in various power states
system.membus.trans_dist::ReadResp              24575                       # Transaction distribution
system.membus.trans_dist::WritebackDirty        52985                       # Transaction distribution
system.membus.trans_dist::CleanEvict            22281                       # Transaction distribution
system.membus.trans_dist::ReadExReq             58995                       # Transaction distribution
system.membus.trans_dist::ReadExResp            58994                       # Transaction distribution
system.membus.trans_dist::ReadSharedReq         24575                       # Transaction distribution
system.membus.pkt_count_system.l2.mem_side::system.mem_ctrls.port       242405                       # Packet count per connected master and slave (bytes)
system.membus.pkt_count::total                 242405                       # Packet count per connected master and slave (bytes)
system.membus.pkt_size_system.l2.mem_side::system.mem_ctrls.port     34957824                       # Cumulative packet size per connected master and slave (bytes)
system.membus.pkt_size::total                34957824                       # Cumulative packet size per connected master and slave (bytes)
system.membus.snoops                                0                       # Total snoops (count)
system.membus.snoopTraffic                          0                       # Total snoop traffic (bytes)
system.membus.snoop_fanout::samples             83570                       # Request fanout histogram
system.membus.snoop_fanout::mean                    0                       # Request fanout histogram
system.membus.snoop_fanout::stdev                   0                       # Request fanout histogram
system.membus.snoop_fanout::underflows              0      0.00%      0.00% # Request fanout histogram
system.membus.snoop_fanout::0                   83570    100.00%    100.00% # Request fanout histogram
system.membus.snoop_fanout::1                       0      0.00%    100.00% # Request fanout histogram
system.membus.snoop_fanout::overflows               0      0.00%    100.00% # Request fanout histogram
system.membus.snoop_fanout::min_value               0                       # Request fanout histogram
system.membus.snoop_fanout::max_value               0                       # Request fanout histogram
system.membus.snoop_fanout::total               83570                       # Request fanout histogram
system.membus.respLayer1.occupancy         1453779750                       # Layer occupancy (ticks)
system.membus.respLayer1.utilization              1.7                       # Layer utilization (%)
system.membus.reqLayer0.occupancy          1030533500                       # Layer occupancy (ticks)
system.membus.reqLayer0.utilization               1.2                       # Layer utilization (%)
system.tol2bus.pwrStateResidencyTicks::UNDEFINED  83117510000                       # Cumulative time (in ticks) in various power states
system.tol2bus.trans_dist::ReadResp            443446                       # Transaction distribution
system.tol2bus.trans_dist::WritebackDirty       783121                       # Transaction distribution
system.tol2bus.trans_dist::WritebackClean          458                       # Transaction distribution
system.tol2bus.trans_dist::CleanEvict           61556                       # Transaction distribution
system.tol2bus.trans_dist::ReadExReq           326590                       # Transaction distribution
system.tol2bus.trans_dist::ReadExResp          326589                       # Transaction distribution
system.tol2bus.trans_dist::ReadCleanReq           573                       # Transaction distribution
system.tol2bus.trans_dist::ReadSharedReq       442873                       # Transaction distribution
system.tol2bus.pkt_count_system.cpu.icache.mem_side::system.l2.cpu_side         1604                       # Packet count per connected master and slave (bytes)
system.tol2bus.pkt_count_system.cpu.dcache.mem_side::system.l2.cpu_side      2308131                       # Packet count per connected master and slave (bytes)
system.tol2bus.pkt_count::total               2309735                       # Packet count per connected master and slave (bytes)
system.tol2bus.pkt_size_system.cpu.icache.mem_side::system.l2.cpu_side       263936                       # Cumulative packet size per connected master and slave (bytes)
system.tol2bus.pkt_size_system.cpu.dcache.mem_side::system.l2.cpu_side    383897088                       # Cumulative packet size per connected master and slave (bytes)
system.tol2bus.pkt_size::total              384161024                       # Cumulative packet size per connected master and slave (bytes)
system.tol2bus.snoops                           75471                       # Total snoops (count)
system.tol2bus.snoopTraffic                  13564160                       # Total snoop traffic (bytes)
system.tol2bus.snoop_fanout::samples           845507                       # Request fanout histogram
system.tol2bus.snoop_fanout::mean            0.000604                       # Request fanout histogram
system.tol2bus.snoop_fanout::stdev           0.024625                       # Request fanout histogram
system.tol2bus.snoop_fanout::underflows             0      0.00%      0.00% # Request fanout histogram
system.tol2bus.snoop_fanout::0                 844997     99.94%     99.94% # Request fanout histogram
system.tol2bus.snoop_fanout::1                    509      0.06%    100.00% # Request fanout histogram
system.tol2bus.snoop_fanout::2                      1      0.00%    100.00% # Request fanout histogram
system.tol2bus.snoop_fanout::overflows              0      0.00%    100.00% # Request fanout histogram
system.tol2bus.snoop_fanout::min_value              0                       # Request fanout histogram
system.tol2bus.snoop_fanout::max_value              2                       # Request fanout histogram
system.tol2bus.snoop_fanout::total             845507                       # Request fanout histogram
system.tol2bus.reqLayer0.occupancy         3692226000                       # Layer occupancy (ticks)
system.tol2bus.reqLayer0.utilization              4.4                       # Layer utilization (%)
system.tol2bus.respLayer1.occupancy        3462581994                       # Layer occupancy (ticks)
system.tol2bus.respLayer1.utilization             4.2                       # Layer utilization (%)
system.tol2bus.respLayer0.occupancy           2578500                       # Layer occupancy (ticks)
system.tol2bus.respLayer0.utilization             0.0                       # Layer utilization (%)
system.voltage_domain.voltage                       1                       # Voltage in Volts
system.clk_domain.clock                          1000                       # Clock period in ticks
system.l2.pwrStateResidencyTicks::UNDEFINED  83117510000                       # Cumulative time (in ticks) in various power states
system.l2.demand_hits::.cpu.inst                  256                       # number of demand (read+write) hits
system.l2.demand_hits::.cpu.data               686204                       # number of demand (read+write) hits
system.l2.demand_hits::total                   686460                       # number of demand (read+write) hits
system.l2.overall_hits::.cpu.inst                 256                       # number of overall hits
system.l2.overall_hits::.cpu.data              686204                       # number of overall hits
system.l2.overall_hits::total                  686460                       # number of overall hits
system.l2.demand_misses::.cpu.inst                317                       # number of demand (read+write) misses
system.l2.demand_misses::.cpu.data              83259                       # number of demand (read+write) misses
system.l2.demand_misses::total                  83576                       # number of demand (read+write) misses
system.l2.overall_misses::.cpu.inst               317                       # number of overall misses
system.l2.overall_misses::.cpu.data             83259                       # number of overall misses
system.l2.overall_misses::total                 83576                       # number of overall misses
system.l2.demand_miss_latency::.cpu.inst     31900500                       # number of demand (read+write) miss cycles
system.l2.demand_miss_latency::.cpu.data   9905786000                       # number of demand (read+write) miss cycles
system.l2.demand_miss_latency::total       9937686500                       # number of demand (read+write) miss cycles
system.l2.overall_miss_latency::.cpu.inst     31900500                       # number of overall miss cycles
system.l2.overall_miss_latency::.cpu.data   9905786000                       # number of overall miss cycles
system.l2.overall_miss_latency::total      9937686500                       # number of overall miss cycles
system.l2.demand_accesses::.cpu.inst              573                       # number of demand (read+write) accesses
system.l2.demand_accesses::.cpu.data           769463                       # number of demand (read+write) accesses
system.l2.demand_accesses::total               770036                       # number of demand (read+write) accesses
system.l2.overall_accesses::.cpu.inst             573                       # number of overall (read+write) accesses
system.l2.overall_accesses::.cpu.data          769463                       # number of overall (read+write) accesses
system.l2.overall_accesses::total              770036                       # number of overall (read+write) accesses
system.l2.demand_miss_rate::.cpu.inst        0.553229                       # miss rate for demand accesses
system.l2.demand_miss_rate::.cpu.data        0.108204                       # miss rate for demand accesses
system.l2.demand_miss_rate::total            0.108535                       # miss rate for demand accesses
system.l2.overall_miss_rate::.cpu.inst       0.553229                       # miss rate for overall accesses
system.l2.overall_miss_rate::.cpu.data       0.108204                       # miss rate for overall accesses
system.l2.overall_miss_rate::total           0.108535                       # miss rate for overall accesses
system.l2.demand_avg_miss_latency::.cpu.inst 100632.492114                       # average overall miss latency
system.l2.demand_avg_miss_latency::.cpu.data 118975.558198                       # average overall miss latency
system.l2.demand_avg_miss_latency::total 118905.983775                       # average overall miss latency
system.l2.overall_avg_miss_latency::.cpu.inst 100632.492114                       # average overall miss latency
system.l2.overall_avg_miss_latency::.cpu.data 118975.558198                       # average overall miss latency
system.l2.overall_avg_miss_latency::total 118905.983775                       # average overall miss latency
system.l2.blocked_cycles::no_mshrs                  0                       # number of cycles access was blocked
system.l2.blocked_cycles::no_targets                0                       # number of cycles access was blocked
system.l2.blocked::no_mshrs                         0                       # number of cycles access was blocked
system.l2.blocked::no_targets                       0                       # number of cycles access was blocked
system.l2.avg_blocked_cycles::no_mshrs            nan                       # average number of cycles each access was blocked
system.l2.avg_blocked_cycles::no_targets          nan                       # average number of cycles each access was blocked
system.l2.writebacks::.writebacks               52985                       # number of writebacks
system.l2.writebacks::total                     52985                       # number of writebacks
system.l2.demand_mshr_hits::.cpu.data               6                       # number of demand (read+write) MSHR hits
system.l2.demand_mshr_hits::total                   6                       # number of demand (read+write) MSHR hits
system.l2.overall_mshr_hits::.cpu.data              6                       # number of overall MSHR hits
system.l2.overall_mshr_hits::total                  6                       # number of overall MSHR hits
system.l2.demand_mshr_misses::.cpu.inst           317                       # number of demand (read+write) MSHR misses
system.l2.demand_mshr_misses::.cpu.data         83253                       # number of demand (read+write) MSHR misses
system.l2.demand_mshr_misses::total             83570                       # number of demand (read+write) MSHR misses
system.l2.overall_mshr_misses::.cpu.inst          317                       # number of overall MSHR misses
system.l2.overall_mshr_misses::.cpu.data        83253                       # number of overall MSHR misses
system.l2.overall_mshr_misses::total            83570                       # number of overall MSHR misses
system.l2.demand_mshr_miss_latency::.cpu.inst     28730500                       # number of demand (read+write) MSHR miss cycles
system.l2.demand_mshr_miss_latency::.cpu.data   9072737500                       # number of demand (read+write) MSHR miss cycles
system.l2.demand_mshr_miss_latency::total   9101468000                       # number of demand (read+write) MSHR miss cycles
system.l2.overall_mshr_miss_latency::.cpu.inst     28730500                       # number of overall MSHR miss cycles
system.l2.overall_mshr_miss_latency::.cpu.data   9072737500                       # number of overall MSHR miss cycles
system.l2.overall_mshr_miss_latency::total   9101468000                       # number of overall MSHR miss cycles
system.l2.demand_mshr_miss_rate::.cpu.inst     0.553229                       # mshr miss rate for demand accesses
system.l2.demand_mshr_miss_rate::.cpu.data     0.108196                       # mshr miss rate for demand accesses
system.l2.demand_mshr_miss_rate::total       0.108527                       # mshr miss rate for demand accesses
system.l2.overall_mshr_miss_rate::.cpu.inst     0.553229                       # mshr miss rate for overall accesses
system.l2.overall_mshr_miss_rate::.cpu.data     0.108196                       # mshr miss rate for overall accesses
system.l2.overall_mshr_miss_rate::total      0.108527                       # mshr miss rate for overall accesses
system.l2.demand_avg_mshr_miss_latency::.cpu.inst 90632.492114                       # average overall mshr miss latency
system.l2.demand_avg_mshr_miss_latency::.cpu.data 108977.904700                       # average overall mshr miss latency
system.l2.demand_avg_mshr_miss_latency::total 108908.316381                       # average overall mshr miss latency
system.l2.overall_avg_mshr_miss_latency::.cpu.inst 90632.492114                       # average overall mshr miss latency
system.l2.overall_avg_mshr_miss_latency::.cpu.data 108977.904700                       # average overall mshr miss latency
system.l2.overall_avg_mshr_miss_latency::total 108908.316381                       # average overall mshr miss latency
system.l2.replacements                          75471                       # number of replacements
system.l2.WritebackDirty_hits::.writebacks       730136                       # number of WritebackDirty hits
system.l2.WritebackDirty_hits::total           730136                       # number of WritebackDirty hits
system.l2.WritebackDirty_accesses::.writebacks       730136                       # number of WritebackDirty accesses(hits+misses)
system.l2.WritebackDirty_accesses::total       730136                       # number of WritebackDirty accesses(hits+misses)
system.l2.WritebackClean_hits::.writebacks          427                       # number of WritebackClean hits
system.l2.WritebackClean_hits::total              427                       # number of WritebackClean hits
system.l2.WritebackClean_accesses::.writebacks          427                       # number of WritebackClean accesses(hits+misses)
system.l2.WritebackClean_accesses::total          427                       # number of WritebackClean accesses(hits+misses)
system.l2.CleanEvict_mshr_misses::.writebacks            1                       # number of CleanEvict MSHR misses
system.l2.CleanEvict_mshr_misses::total             1                       # number of CleanEvict MSHR misses
system.l2.CleanEvict_mshr_miss_rate::.writebacks          inf                       # mshr miss rate for CleanEvict accesses
system.l2.CleanEvict_mshr_miss_rate::total          inf                       # mshr miss rate for CleanEvict accesses
system.l2.ReadExReq_hits::.cpu.data            267595                       # number of ReadExReq hits
system.l2.ReadExReq_hits::total                267595                       # number of ReadExReq hits
system.l2.ReadExReq_misses::.cpu.data           58995                       # number of ReadExReq misses
system.l2.ReadExReq_misses::total               58995                       # number of ReadExReq misses
system.l2.ReadExReq_miss_latency::.cpu.data   7456210000                       # number of ReadExReq miss cycles
system.l2.ReadExReq_miss_latency::total    7456210000                       # number of ReadExReq miss cycles
system.l2.ReadExReq_accesses::.cpu.data        326590                       # number of ReadExReq accesses(hits+misses)
system.l2.ReadExReq_accesses::total            326590                       # number of ReadExReq accesses(hits+misses)
system.l2.ReadExReq_miss_rate::.cpu.data     0.180639                       # miss rate for ReadExReq accesses
system.l2.ReadExReq_miss_rate::total         0.180639                       # miss rate for ReadExReq accesses
system.l2.ReadExReq_avg_miss_latency::.cpu.data 126387.151454                       # average ReadExReq miss latency
system.l2.ReadExReq_avg_miss_latency::total 126387.151454                       # average ReadExReq miss latency
system.l2.ReadExReq_mshr_misses::.cpu.data        58995                       # number of ReadExReq MSHR misses
system.l2.ReadExReq_mshr_misses::total          58995                       # number of ReadExReq MSHR misses
system.l2.ReadExReq_mshr_miss_latency::.cpu.data   6866270000                       # number of ReadExReq MSHR miss cycles
system.l2.ReadExReq_mshr_miss_latency::total   6866270000                       # number of ReadExReq MSHR miss cycles
system.l2.ReadExReq_mshr_miss_rate::.cpu.data     0.180639                       # mshr miss rate for ReadExReq accesses
system.l2.ReadExReq_mshr_miss_rate::total     0.180639                       # mshr miss rate for ReadExReq accesses
system.l2.ReadExReq_avg_mshr_miss_latency::.cpu.data 116387.320959                       # average ReadExReq mshr miss latency
system.l2.ReadExReq_avg_mshr_miss_latency::total 116387.320959                       # average ReadExReq mshr miss latency
system.l2.ReadCleanReq_hits::.cpu.inst            256                       # number of ReadCleanReq hits
system.l2.ReadCleanReq_hits::total                256                       # number of ReadCleanReq hits
system.l2.ReadCleanReq_misses::.cpu.inst          317                       # number of ReadCleanReq misses
system.l2.ReadCleanReq_misses::total              317                       # number of ReadCleanReq misses
system.l2.ReadCleanReq_miss_latency::.cpu.inst     31900500                       # number of ReadCleanReq miss cycles
system.l2.ReadCleanReq_miss_latency::total     31900500                       # number of ReadCleanReq miss cycles
system.l2.ReadCleanReq_accesses::.cpu.inst          573                       # number of ReadCleanReq accesses(hits+misses)
system.l2.ReadCleanReq_accesses::total            573                       # number of ReadCleanReq accesses(hits+misses)
system.l2.ReadCleanReq_miss_rate::.cpu.inst     0.553229                       # miss rate for ReadCleanReq accesses
system.l2.ReadCleanReq_miss_rate::total      0.553229                       # miss rate for ReadCleanReq accesses
system.l2.ReadCleanReq_avg_miss_latency::.cpu.inst 100632.492114                       # average ReadCleanReq miss latency
system.l2.ReadCleanReq_avg_miss_latency::total 100632.492114                       # average ReadCleanReq miss latency
system.l2.ReadCleanReq_mshr_misses::.cpu.inst          317                       # number of ReadCleanReq MSHR misses
system.l2.ReadCleanReq_mshr_misses::total          317                       # number of ReadCleanReq MSHR misses
system.l2.ReadCleanReq_mshr_miss_latency::.cpu.inst     28730500                       # number of ReadCleanReq MSHR miss cycles
system.l2.ReadCleanReq_mshr_miss_latency::total     28730500                       # number of ReadCleanReq MSHR miss cycles
system.l2.ReadCleanReq_mshr_miss_rate::.cpu.inst     0.553229                       # mshr miss rate for ReadCleanReq accesses
system.l2.ReadCleanReq_mshr_miss_rate::total     0.553229                       # mshr miss rate for ReadCleanReq accesses
system.l2.ReadCleanReq_avg_mshr_miss_latency::.cpu.inst 90632.492114                       # average ReadCleanReq mshr miss latency
system.l2.ReadCleanReq_avg_mshr_miss_latency::total 90632.492114                       # average ReadCleanReq mshr miss latency
system.l2.ReadSharedReq_hits::.cpu.data        418609                       # number of ReadSharedReq hits
system.l2.ReadSharedReq_hits::total            418609                       # number of ReadSharedReq hits
system.l2.ReadSharedReq_misses::.cpu.data        24264                       # number of ReadSharedReq misses
system.l2.ReadSharedReq_misses::total           24264                       # number of ReadSharedReq misses
system.l2.ReadSharedReq_miss_latency::.cpu.data   2449576000                       # number of ReadSharedReq miss cycles
system.l2.ReadSharedReq_miss_latency::total   2449576000                       # number of ReadSharedReq miss cycles
system.l2.ReadSharedReq_accesses::.cpu.data       442873                       # number of ReadSharedReq accesses(hits+misses)
system.l2.ReadSharedReq_accesses::total        442873                       # number of ReadSharedReq accesses(hits+misses)
system.l2.ReadSharedReq_miss_rate::.cpu.data     0.054788                       # miss rate for ReadSharedReq accesses
system.l2.ReadSharedReq_miss_rate::total     0.054788                       # miss rate for ReadSharedReq accesses
system.l2.ReadSharedReq_avg_miss_latency::.cpu.data 100955.159908                       # average ReadSharedReq miss latency
system.l2.ReadSharedReq_avg_miss_latency::total 100955.159908                       # average ReadSharedReq miss latency
system.l2.ReadSharedReq_mshr_hits::.cpu.data            6                       # number of ReadSharedReq MSHR hits
system.l2.ReadSharedReq_mshr_hits::total            6                       # number of ReadSharedReq MSHR hits
system.l2.ReadSharedReq_mshr_misses::.cpu.data        24258                       # number of ReadSharedReq MSHR misses
system.l2.ReadSharedReq_mshr_misses::total        24258                       # number of ReadSharedReq MSHR misses
system.l2.ReadSharedReq_mshr_miss_latency::.cpu.data   2206467500                       # number of ReadSharedReq MSHR miss cycles
system.l2.ReadSharedReq_mshr_miss_latency::total   2206467500                       # number of ReadSharedReq MSHR miss cycles
system.l2.ReadSharedReq_mshr_miss_rate::.cpu.data     0.054774                       # mshr miss rate for ReadSharedReq accesses
system.l2.ReadSharedReq_mshr_miss_rate::total     0.054774                       # mshr miss rate for ReadSharedReq accesses
system.l2.ReadSharedReq_avg_mshr_miss_latency::.cpu.data 90958.343639                       # average ReadSharedReq mshr miss latency
system.l2.ReadSharedReq_avg_mshr_miss_latency::total 90958.343639                       # average ReadSharedReq mshr miss latency
system.l2.tags.pwrStateResidencyTicks::UNDEFINED  83117510000                       # Cumulative time (in ticks) in various power states
system.l2.tags.tagsinuse                  7970.527290                       # Cycle average of tags in use
system.l2.tags.total_refs                     1539388                       # Total number of references to valid blocks.
system.l2.tags.sampled_refs                     83663                       # Sample count of references to valid blocks.
system.l2.tags.avg_refs                     18.399866                       # Average number of references to valid blocks.
system.l2.tags.warmup_cycle                     92000                       # Cycle when the warmup percentage was hit.
system.l2.tags.occ_blocks::.writebacks      23.686741                       # Average occupied blocks per requestor
system.l2.tags.occ_blocks::.cpu.inst        41.035516                       # Average occupied blocks per requestor
system.l2.tags.occ_blocks::.cpu.data      7905.805033                       # Average occupied blocks per requestor
system.l2.tags.occ_percent::.writebacks      0.002891                       # Average percentage of cache occupancy
system.l2.tags.occ_percent::.cpu.inst        0.005009                       # Average percentage of cache occupancy
system.l2.tags.occ_percent::.cpu.data        0.965064                       # Average percentage of cache occupancy
system.l2.tags.occ_percent::total            0.972965                       # Average percentage of cache occupancy
system.l2.tags.occ_task_id_blocks::1024          8192                       # Occupied blocks per task id
system.l2.tags.age_task_id_blocks_1024::0           22                       # Occupied blocks per task id
system.l2.tags.age_task_id_blocks_1024::1           48                       # Occupied blocks per task id
system.l2.tags.age_task_id_blocks_1024::2          392                       # Occupied blocks per task id
system.l2.tags.age_task_id_blocks_1024::3         4971                       # Occupied blocks per task id
system.l2.tags.age_task_id_blocks_1024::4         2759                       # Occupied blocks per task id
system.l2.tags.occ_task_id_percent::1024            1                       # Percentage of cache occupancy per task id
system.l2.tags.tag_accesses                  12398831                       # Number of tag accesses
system.l2.tags.data_accesses                 12398831                       # Number of data accesses
system.cpu_voltage_domain.voltage                   1                       # Voltage in Volts
system.mem_ctrls.pwrStateResidencyTicks::UNDEFINED  83117510000                       # Cumulative time (in ticks) in various power states
system.mem_ctrls.bytes_read::.cpu.inst          81152                       # Number of bytes read from this memory
system.mem_ctrls.bytes_read::.cpu.data       21312512                       # Number of bytes read from this memory
system.mem_ctrls.bytes_read::total           21393664                       # Number of bytes read from this memory
system.mem_ctrls.bytes_inst_read::.cpu.inst        81152                       # Number of instructions bytes read from this memory
system.mem_ctrls.bytes_inst_read::total         81152                       # Number of instructions bytes read from this memory
system.mem_ctrls.bytes_written::.writebacks     13564160                       # Number of bytes written to this memory
system.mem_ctrls.bytes_written::total        13564160                       # Number of bytes written to this memory
system.mem_ctrls.num_reads::.cpu.inst             317                       # Number of read requests responded to by this memory
system.mem_ctrls.num_reads::.cpu.data           83252                       # Number of read requests responded to by this memory
system.mem_ctrls.num_reads::total               83569                       # Number of read requests responded to by this memory
system.mem_ctrls.num_writes::.writebacks        52985                       # Number of write requests responded to by this memory
system.mem_ctrls.num_writes::total              52985                       # Number of write requests responded to by this memory
system.mem_ctrls.bw_read::.cpu.inst            976353                       # Total read bandwidth from this memory (bytes/s)
system.mem_ctrls.bw_read::.cpu.data         256414226                       # Total read bandwidth from this memory (bytes/s)
system.mem_ctrls.bw_read::total             257390579                       # Total read bandwidth from this memory (bytes/s)
system.mem_ctrls.bw_inst_read::.cpu.inst       976353                       # Instruction read bandwidth from this memory (bytes/s)
system.mem_ctrls.bw_inst_read::total           976353                       # Instruction read bandwidth from this memory (bytes/s)
system.mem_ctrls.bw_write::.writebacks      163192569                       # Write bandwidth from this memory (bytes/s)
system.mem_ctrls.bw_write::total            163192569                       # Write bandwidth from this memory (bytes/s)
system.mem_ctrls.bw_total::.writebacks      163192569                       # Total bandwidth to/from this memory (bytes/s)
system.mem_ctrls.bw_total::.cpu.inst           976353                       # Total bandwidth to/from this memory (bytes/s)
system.mem_ctrls.bw_total::.cpu.data        256414226                       # Total bandwidth to/from this memory (bytes/s)
system.mem_ctrls.bw_total::total            420583148                       # Total bandwidth to/from this memory (bytes/s)
system.mem_ctrls.avgPriority_.writebacks::samples    211940.00                       # Average QoS priority value for accepted requests
system.mem_ctrls.avgPriority_.cpu.inst::samples      1268.00                       # Average QoS priority value for accepted requests
system.mem_ctrls.avgPriority_.cpu.data::samples    332937.00                       # Average QoS priority value for accepted requests
system.mem_ctrls.priorityMinLatency      0.000000018750                       # per QoS priority minimum request to response latency (s)
system.mem_ctrls.priorityMaxLatency      0.040081122500                       # per QoS priority maximum request to response latency (s)
system.mem_ctrls.numReadWriteTurnArounds        12658                       # Number of turnarounds from READ to WRITE
system.mem_ctrls.numWriteReadTurnArounds        12658                       # Number of turnarounds from WRITE to READ
system.mem_ctrls.numStayReadState              467673                       # Number of times bus staying in READ state
system.mem_ctrls.numStayWriteState             199576                       # Number of times bus staying in WRITE state
system.mem_ctrls.readReqs                       83570                       # Number of read requests accepted
system.mem_ctrls.writeReqs                      52985                       # Number of write requests accepted
system.mem_ctrls.readBursts                    334280                       # Number of DRAM read bursts, including those serviced by the write queue
system.mem_ctrls.writeBursts                   211940                       # Number of DRAM write bursts, including those merged in the write queue
system.mem_ctrls.servicedByWrQ                     75                       # Number of DRAM read bursts serviced by the write queue
system.mem_ctrls.mergedWrBursts                     0                       # Number of DRAM write bursts merged with an existing one
system.mem_ctrls.neitherReadNorWriteReqs            0                       # Number of requests that are neither read nor write
system.mem_ctrls.perBankRdBursts::0             21332                       # Per bank write bursts
system.mem_ctrls.perBankRdBursts::1             21332                       # Per bank write bursts
system.mem_ctrls.perBankRdBursts::2             21324                       # Per bank write bursts
system.mem_ctrls.perBankRdBursts::3             20980                       # Per bank write bursts
system.mem_ctrls.perBankRdBursts::4             20816                       # Per bank write bursts
system.mem_ctrls.perBankRdBursts::5             20732                       # Per bank write bursts
system.mem_ctrls.perBankRdBursts::6             20456                       # Per bank write bursts
system.mem_ctrls.perBankRdBursts::7             20692                       # Per bank write bursts
system.mem_ctrls.perBankRdBursts::8             20736                       # Per bank write bursts
system.mem_ctrls.perBankRdBursts::9             20592                       # Per bank write bursts
system.mem_ctrls.perBankRdBursts::10            20576                       # Per bank write bursts
system.mem_ctrls.perBankRdBursts::11            20626                       # Per bank write bursts
system.mem_ctrls.perBankRdBursts::12            20957                       # Per bank write bursts
system.mem_ctrls.perBankRdBursts::13            21040                       # Per bank write bursts
system.mem_ctrls.perBankRdBursts::14            21008                       # Per bank write bursts
system.mem_ctrls.perBankRdBursts::15            21006                       # Per bank write bursts
system.mem_ctrls.perBankWrBursts::0             13436                       # Per bank write bursts
system.mem_ctrls.perBankWrBursts::1             13616                       # Per bank write bursts
system.mem_ctrls.perBankWrBursts::2             13584                       # Per bank write bursts
system.mem_ctrls.perBankWrBursts::3             13348                       # Per bank write bursts
system.mem_ctrls.perBankWrBursts::4             13212                       # Per bank write bursts
system.mem_ctrls.perBankWrBursts::5             13236                       # Per bank write bursts
system.mem_ctrls.perBankWrBursts::6             13000                       # Per bank write bursts
system.mem_ctrls.perBankWrBursts::7             13048                       # Per bank write bursts
system.mem_ctrls.perBankWrBursts::8             13112                       # Per bank write bursts
system.mem_ctrls.perBankWrBursts::9             13012                       # Per bank write bursts
system.mem_ctrls.perBankWrBursts::10            13093                       # Per bank write bursts
system.mem_ctrls.perBankWrBursts::11            13044                       # Per bank write bursts
system.mem_ctrls.perBankWrBursts::12            13188                       # Per bank write bursts
system.mem_ctrls.perBankWrBursts::13            13360                       # Per bank write bursts
system.mem_ctrls.perBankWrBursts::14            13280                       # Per bank write bursts
system.mem_ctrls.perBankWrBursts::15            13356                       # Per bank write bursts
system.mem_ctrls.avgRdQLen                       4.14                       # Average read queue length when enqueuing
system.mem_ctrls.avgWrQLen                      27.33                       # Average write queue length when enqueuing
system.mem_ctrls.totQLat                  13127707250                       # Total ticks spent queuing
system.mem_ctrls.totBusLat                 1671025000                       # Total ticks spent in databus transfers
system.mem_ctrls.totMemAccLat             19394051000                       # Total ticks spent from burst creation until serviced by the DRAM
system.mem_ctrls.avgQLat                     39280.40                       # Average queueing delay per DRAM burst
system.mem_ctrls.avgBusLat                    5000.00                       # Average bus latency per DRAM burst
system.mem_ctrls.avgMemAccLat                58030.40                       # Average memory access latency per DRAM burst
system.mem_ctrls.numRdRetry                         0                       # Number of times read queue was full causing retry
system.mem_ctrls.numWrRetry                         0                       # Number of times write queue was full causing retry
system.mem_ctrls.readRowHits                   297458                       # Number of row buffer hits during reads
system.mem_ctrls.writeRowHits                  184450                       # Number of row buffer hits during writes
system.mem_ctrls.readRowHitRate                 89.00                       # Row buffer hit rate for reads
system.mem_ctrls.writeRowHitRate                87.03                       # Row buffer hit rate for writes
system.mem_ctrls.readPktSize::0                     0                       # Read request sizes (log2)
system.mem_ctrls.readPktSize::1                     0                       # Read request sizes (log2)
system.mem_ctrls.readPktSize::2                     0                       # Read request sizes (log2)
system.mem_ctrls.readPktSize::3                     0                       # Read request sizes (log2)
system.mem_ctrls.readPktSize::4                     0                       # Read request sizes (log2)
system.mem_ctrls.readPktSize::5                     0                       # Read request sizes (log2)
system.mem_ctrls.readPktSize::6                334280                       # Read request sizes (log2)
system.mem_ctrls.writePktSize::0                    0                       # Write request sizes (log2)
system.mem_ctrls.writePktSize::1                    0                       # Write request sizes (log2)
system.mem_ctrls.writePktSize::2                    0                       # Write request sizes (log2)
system.mem_ctrls.writePktSize::3                    0                       # Write request sizes (log2)
system.mem_ctrls.writePktSize::4                    0                       # Write request sizes (log2)
system.mem_ctrls.writePktSize::5                    0                       # Write request sizes (log2)
system.mem_ctrls.writePktSize::6               211940                       # Write request sizes (log2)
system.mem_ctrls.rdQLenPdf::0                   66728                       # What read queue length does an incoming req see
system.mem_ctrls.rdQLenPdf::1                   66826                       # What read queue length does an incoming req see
system.mem_ctrls.rdQLenPdf::2                   67020                       # What read queue length does an incoming req see
system.mem_ctrls.rdQLenPdf::3                   67718                       # What read queue length does an incoming req see
system.mem_ctrls.rdQLenPdf::4                   16823                       # What read queue length does an incoming req see
system.mem_ctrls.rdQLenPdf::5                   16722                       # What read queue length does an incoming req see
system.mem_ctrls.rdQLenPdf::6                   16527                       # What read queue length does an incoming req see
system.mem_ctrls.rdQLenPdf::7                   15829                       # What read queue length does an incoming req see
system.mem_ctrls.rdQLenPdf::8                       3                       # What read queue length does an incoming req see
system.mem_ctrls.rdQLenPdf::9                       3                       # What read queue length does an incoming req see
system.mem_ctrls.rdQLenPdf::10                      3                       # What read queue length does an incoming req see
system.mem_ctrls.rdQLenPdf::11                      3                       # What read queue length does an incoming req see
system.mem_ctrls.rdQLenPdf::12                      0                       # What read queue length does an incoming req see
system.mem_ctrls.rdQLenPdf::13                      0                       # What read queue length does an incoming req see
system.mem_ctrls.rdQLenPdf::14                      0                       # What read queue length does an incoming req see
system.mem_ctrls.rdQLenPdf::15                      0                       # What read queue length does an incoming req see
system.mem_ctrls.rdQLenPdf::16                      0                       # What read queue length does an incoming req see
system.mem_ctrls.rdQLenPdf::17                      0                       # What read queue length does an incoming req see
system.mem_ctrls.rdQLenPdf::18                      0                       # What read queue length does an incoming req see
system.mem_ctrls.rdQLenPdf::19                      0                       # What read queue length does an incoming req see
system.mem_ctrls.rdQLenPdf::20                      0                       # What read queue length does an incoming req see
system.mem_ctrls.rdQLenPdf::21                      0                       # What read queue length does an incoming req see
system.mem_ctrls.rdQLenPdf::22                      0                       # What read queue length does an incoming req see
system.mem_ctrls.rdQLenPdf::23                      0                       # What read queue length does an incoming req see
system.mem_ctrls.rdQLenPdf::24                      0                       # What read queue length does an incoming req see
system.mem_ctrls.rdQLenPdf::25                      0                       # What read queue length does an incoming req see
system.mem_ctrls.rdQLenPdf::26                      0                       # What read queue length does an incoming req see
system.mem_ctrls.rdQLenPdf::27                      0                       # What read queue length does an incoming req see
system.mem_ctrls.rdQLenPdf::28                      0                       # What read queue length does an incoming req see
system.mem_ctrls.rdQLenPdf::29                      0                       # What read queue length does an incoming req see
system.mem_ctrls.rdQLenPdf::30                      0                       # What read queue length does an incoming req see
system.mem_ctrls.rdQLenPdf::31                      0                       # What read queue length does an incoming req see
system.mem_ctrls.wrQLenPdf::0                       1                       # What write queue length does an incoming req see
system.mem_ctrls.wrQLenPdf::1                       1                       # What write queue length does an incoming req see
system.mem_ctrls.wrQLenPdf::2                       1                       # What write queue length does an incoming req see
system.mem_ctrls.wrQLenPdf::3                       1                       # What write queue length does an incoming req see
system.mem_ctrls.wrQLenPdf::4                       1                       # What write queue length does an incoming req see
system.mem_ctrls.wrQLenPdf::5                       1                       # What write queue length does an incoming req see
system.mem_ctrls.wrQLenPdf::6                       1                       # What write queue length does an incoming req see
system.mem_ctrls.wrQLenPdf::7                       1                       # What write queue length does an incoming req see
system.mem_ctrls.wrQLenPdf::8                       1                       # What write queue length does an incoming req see
system.mem_ctrls.wrQLenPdf::9                       1                       # What write queue length does an incoming req see
system.mem_ctrls.wrQLenPdf::10                      1                       # What write queue length does an incoming req see
system.mem_ctrls.wrQLenPdf::11                      1                       # What write queue length does an incoming req see
system.mem_ctrls.wrQLenPdf::12                      1                       # What write queue length does an incoming req see
system.mem_ctrls.wrQLenPdf::13                      1                       # What write queue length does an incoming req see
system.mem_ctrls.wrQLenPdf::14                      1                       # What write queue length does an incoming req see
system.mem_ctrls.wrQLenPdf::15                   2028                       # What write queue length does an incoming req see
system.mem_ctrls.wrQLenPdf::16                   2068                       # What write queue length does an incoming req see
system.mem_ctrls.wrQLenPdf::17                   3151                       # What write queue length does an incoming req see
system.mem_ctrls.wrQLenPdf::18                   4230                       # What write queue length does an incoming req see
system.mem_ctrls.wrQLenPdf::19                   5968                       # What write queue length does an incoming req see
system.mem_ctrls.wrQLenPdf::20                   7753                       # What write queue length does an incoming req see
system.mem_ctrls.wrQLenPdf::21                   8527                       # What write queue length does an incoming req see
system.mem_ctrls.wrQLenPdf::22                  10108                       # What write queue length does an incoming req see
system.mem_ctrls.wrQLenPdf::23                  11689                       # What write queue length does an incoming req see
system.mem_ctrls.wrQLenPdf::24                  13676                       # What write queue length does an incoming req see
system.mem_ctrls.wrQLenPdf::25                  13986                       # What write queue length does an incoming req see
system.mem_ctrls.wrQLenPdf::26                  14571                       # What write queue length does an incoming req see
system.mem_ctrls.wrQLenPdf::27                  15340                       # What write queue length does an incoming req see
system.mem_ctrls.wrQLenPdf::28                  15777                       # What write queue length does an incoming req see
system.mem_ctrls.wrQLenPdf::29                  16115                       # What write queue length does an incoming req see
system.mem_ctrls.wrQLenPdf::30                  15530                       # What write queue length does an incoming req see
system.mem_ctrls.wrQLenPdf::31                  14605                       # What write queue length does an incoming req see
system.mem_ctrls.wrQLenPdf::32                  13656                       # What write queue length does an incoming req see
system.mem_ctrls.wrQLenPdf::33                  11162                       # What write queue length does an incoming req see
system.mem_ctrls.wrQLenPdf::34                   8516                       # What write queue length does an incoming req see
system.mem_ctrls.wrQLenPdf::35                   3339                       # What write queue length does an incoming req see
system.mem_ctrls.wrQLenPdf::36                     51                       # What write queue length does an incoming req see
system.mem_ctrls.wrQLenPdf::37                     40                       # What write queue length does an incoming req see
system.mem_ctrls.wrQLenPdf::38                     26                       # What write queue length does an incoming req see
system.mem_ctrls.wrQLenPdf::39                     13                       # What write queue length does an incoming req see
system.mem_ctrls.wrQLenPdf::40                      0                       # What write queue length does an incoming req see
system.mem_ctrls.wrQLenPdf::41                      0                       # What write queue length does an incoming req see
system.mem_ctrls.wrQLenPdf::42                      0                       # What write queue length does an incoming req see
system.mem_ctrls.wrQLenPdf::43                      0                       # What write queue length does an incoming req see
system.mem_ctrls.wrQLenPdf::44                      0                       # What write queue length does an incoming req see
system.mem_ctrls.wrQLenPdf::45                      0                       # What write queue length does an incoming req see
system.mem_ctrls.wrQLenPdf::46                      0                       # What write queue length does an incoming req see
system.mem_ctrls.wrQLenPdf::47                      0                       # What write queue length does an incoming req see
system.mem_ctrls.wrQLenPdf::48                      0                       # What write queue length does an incoming req see
system.mem_ctrls.wrQLenPdf::49                      0                       # What write queue length does an incoming req see
system.mem_ctrls.wrQLenPdf::50                      0                       # What write queue length does an incoming req see
system.mem_ctrls.wrQLenPdf::51                      0                       # What write queue length does an incoming req see
system.mem_ctrls.wrQLenPdf::52                      0                       # What write queue length does an incoming req see
system.mem_ctrls.wrQLenPdf::53                      0                       # What write queue length does an incoming req see
system.mem_ctrls.wrQLenPdf::54                      0                       # What write queue length does an incoming req see
system.mem_ctrls.wrQLenPdf::55                      0                       # What write queue length does an incoming req see
system.mem_ctrls.wrQLenPdf::56                      0                       # What write queue length does an incoming req see
system.mem_ctrls.wrQLenPdf::57                      0                       # What write queue length does an incoming req see
system.mem_ctrls.wrQLenPdf::58                      0                       # What write queue length does an incoming req see
system.mem_ctrls.wrQLenPdf::59                      0                       # What write queue length does an incoming req see
system.mem_ctrls.wrQLenPdf::60                      0                       # What write queue length does an incoming req see
system.mem_ctrls.wrQLenPdf::61                      0                       # What write queue length does an incoming req see
system.mem_ctrls.wrQLenPdf::62                      0                       # What write queue length does an incoming req see
system.mem_ctrls.wrQLenPdf::63                      0                       # What write queue length does an incoming req see
system.mem_ctrls.bytesPerActivate::samples        64211                       # Bytes accessed per row activation
system.mem_ctrls.bytesPerActivate::mean    544.294529                       # Bytes accessed per row activation
system.mem_ctrls.bytesPerActivate::gmean   431.734215                       # Bytes accessed per row activation
system.mem_ctrls.bytesPerActivate::stdev   347.267694                       # Bytes accessed per row activation
system.mem_ctrls.bytesPerActivate::0-127         1973      3.07%      3.07% # Bytes accessed per row activation
system.mem_ctrls.bytesPerActivate::128-255         2150      3.35%      6.42% # Bytes accessed per row activation
system.mem_ctrls.bytesPerActivate::256-383        28480     44.35%     50.77% # Bytes accessed per row activation
system.mem_ctrls.bytesPerActivate::384-511         1304      2.03%     52.81% # Bytes accessed per row activation
system.mem_ctrls.bytesPerActivate::512-639         6317      9.84%     62.64% # Bytes accessed per row activation
system.mem_ctrls.bytesPerActivate::640-767         1171      1.82%     64.47% # Bytes accessed per row activation
system.mem_ctrls.bytesPerActivate::768-895         3360      5.23%     69.70% # Bytes accessed per row activation
system.mem_ctrls.bytesPerActivate::896-1023          522      0.81%     70.51% # Bytes accessed per row activation
system.mem_ctrls.bytesPerActivate::1024-1151        18934     29.49%    100.00% # Bytes accessed per row activation
system.mem_ctrls.bytesPerActivate::total        64211                       # Bytes accessed per row activation
system.mem_ctrls.rdPerTurnAround::samples        12658                       # Reads before turning the bus around for writes
system.mem_ctrls.rdPerTurnAround::mean      26.402354                       # Reads before turning the bus around for writes
system.mem_ctrls.rdPerTurnAround::gmean     20.086862                       # Reads before turning the bus around for writes
system.mem_ctrls.rdPerTurnAround::stdev    147.051107                       # Reads before turning the bus around for writes
system.mem_ctrls.rdPerTurnAround::0-511         12644     99.89%     99.89% # Reads before turning the bus around for writes
system.mem_ctrls.rdPerTurnAround::512-1023            2      0.02%     99.91% # Reads before turning the bus around for writes
system.mem_ctrls.rdPerTurnAround::1024-1535            1      0.01%     99.91% # Reads before turning the bus around for writes
system.mem_ctrls.rdPerTurnAround::1536-2047            2      0.02%     99.93% # Reads before turning the bus around for writes
system.mem_ctrls.rdPerTurnAround::2560-3071            2      0.02%     99.94% # Reads before turning the bus around for writes
[...]
system.cpu.icache.ReadReq_avg_miss_latency::.cpu.inst 63721.640489                       # average ReadReq miss latency
system.cpu.icache.ReadReq_avg_miss_latency::total 63721.640489                       # average ReadReq miss latency
system.cpu.icache.ReadReq_mshr_misses::.cpu.inst          573                       # number of ReadReq MSHR misses
system.cpu.icache.ReadReq_mshr_misses::total          573                       # number of ReadReq MSHR misses
system.cpu.icache.ReadReq_mshr_miss_latency::.cpu.inst     35939500                       # number of ReadReq MSHR miss cycles
system.cpu.icache.ReadReq_mshr_miss_latency::total     35939500                       # number of ReadReq MSHR miss cycles
system.cpu.icache.ReadReq_mshr_miss_rate::.cpu.inst     0.000082                       # mshr miss rate for ReadReq accesses
system.cpu.icache.ReadReq_mshr_miss_rate::total     0.000082                       # mshr miss rate for ReadReq accesses
system.cpu.icache.ReadReq_avg_mshr_miss_latency::.cpu.inst 62721.640489                       # average ReadReq mshr miss latency
system.cpu.icache.ReadReq_avg_mshr_miss_latency::total 62721.640489                       # average ReadReq mshr miss latency
system.cpu.icache.tags.pwrStateResidencyTicks::UNDEFINED  83117510000                       # Cumulative time (in ticks) in various power states
system.cpu.icache.tags.tagsinuse           103.816632                       # Cycle average of tags in use
system.cpu.icache.tags.total_refs             7019609                       # Total number of references to valid blocks.
system.cpu.icache.tags.sampled_refs               573                       # Sample count of references to valid blocks.
system.cpu.icache.tags.avg_refs          12250.626527                       # Average number of references to valid blocks.
system.cpu.icache.tags.warmup_cycle            102500                       # Cycle when the warmup percentage was hit.
system.cpu.icache.tags.occ_blocks::.cpu.inst   103.816632                       # Average occupied blocks per requestor
system.cpu.icache.tags.occ_percent::.cpu.inst     0.811067                       # Average percentage of cache occupancy
system.cpu.icache.tags.occ_percent::total     0.811067                       # Average percentage of cache occupancy
system.cpu.icache.tags.occ_task_id_blocks::1024          115                       # Occupied blocks per task id
system.cpu.icache.tags.age_task_id_blocks_1024::3           24                       # Occupied blocks per task id
system.cpu.icache.tags.age_task_id_blocks_1024::4           91                       # Occupied blocks per task id
system.cpu.icache.tags.occ_task_id_percent::1024     0.898438                       # Percentage of cache occupancy per task id
system.cpu.icache.tags.tag_accesses           7020182                       # Number of tag accesses
system.cpu.icache.tags.data_accesses          7020182                       # Number of data accesses
system.cpu.dtb.walker.pwrStateResidencyTicks::UNDEFINED  83117510000                       # Cumulative time (in ticks) in various power states
system.cpu.dtb.stage2_mmu.stage2_tlb.walker.pwrStateResidencyTicks::UNDEFINED  83117510000                       # Cumulative time (in ticks) in various power states
system.cpu.dcache.pwrStateResidencyTicks::UNDEFINED  83117510000                       # Cumulative time (in ticks) in various power states
system.cpu.dcache.demand_hits::.cpu.data     51258349                       # number of demand (read+write) hits
system.cpu.dcache.demand_hits::total         51258349                       # number of demand (read+write) hits
system.cpu.dcache.overall_hits::.cpu.data     51259036                       # number of overall hits
system.cpu.dcache.overall_hits::total        51259036                       # number of overall hits
system.cpu.dcache.demand_misses::.cpu.data       786481                       # number of demand (read+write) misses
system.cpu.dcache.demand_misses::total         786481                       # number of demand (read+write) misses
system.cpu.dcache.overall_misses::.cpu.data       794215                       # number of overall misses
system.cpu.dcache.overall_misses::total        794215                       # number of overall misses
system.cpu.dcache.demand_miss_latency::.cpu.data  20651603000                       # number of demand (read+write) miss cycles
system.cpu.dcache.demand_miss_latency::total  20651603000                       # number of demand (read+write) miss cycles
system.cpu.dcache.overall_miss_latency::.cpu.data  20651603000                       # number of overall miss cycles
system.cpu.dcache.overall_miss_latency::total  20651603000                       # number of overall miss cycles
system.cpu.dcache.demand_accesses::.cpu.data     52044830                       # number of demand (read+write) accesses
system.cpu.dcache.demand_accesses::total     52044830                       # number of demand (read+write) accesses
system.cpu.dcache.overall_accesses::.cpu.data     52053251                       # number of overall (read+write) accesses
system.cpu.dcache.overall_accesses::total     52053251                       # number of overall (read+write) accesses
system.cpu.dcache.demand_miss_rate::.cpu.data     0.015112                       # miss rate for demand accesses
system.cpu.dcache.demand_miss_rate::total     0.015112                       # miss rate for demand accesses
system.cpu.dcache.overall_miss_rate::.cpu.data     0.015258                       # miss rate for overall accesses
system.cpu.dcache.overall_miss_rate::total     0.015258                       # miss rate for overall accesses
system.cpu.dcache.demand_avg_miss_latency::.cpu.data 26258.235100                       # average overall miss latency
system.cpu.dcache.demand_avg_miss_latency::total 26258.235100                       # average overall miss latency
system.cpu.dcache.overall_avg_miss_latency::.cpu.data 26002.534578                       # average overall miss latency
system.cpu.dcache.overall_avg_miss_latency::total 26002.534578                       # average overall miss latency
system.cpu.dcache.blocked_cycles::no_mshrs            0                       # number of cycles access was blocked
system.cpu.dcache.blocked_cycles::no_targets            0                       # number of cycles access was blocked
system.cpu.dcache.blocked::no_mshrs                 0                       # number of cycles access was blocked
system.cpu.dcache.blocked::no_targets               0                       # number of cycles access was blocked
system.cpu.dcache.avg_blocked_cycles::no_mshrs          nan                       # average number of cycles each access was blocked
system.cpu.dcache.avg_blocked_cycles::no_targets          nan                       # average number of cycles each access was blocked
system.cpu.dcache.writebacks::.writebacks       730136                       # number of writebacks
system.cpu.dcache.writebacks::total            730136                       # number of writebacks
system.cpu.dcache.demand_mshr_hits::.cpu.data        18998                       # number of demand (read+write) MSHR hits
system.cpu.dcache.demand_mshr_hits::total        18998                       # number of demand (read+write) MSHR hits
system.cpu.dcache.overall_mshr_hits::.cpu.data        18998                       # number of overall MSHR hits
system.cpu.dcache.overall_mshr_hits::total        18998                       # number of overall MSHR hits
system.cpu.dcache.demand_mshr_misses::.cpu.data       767483                       # number of demand (read+write) MSHR misses
system.cpu.dcache.demand_mshr_misses::total       767483                       # number of demand (read+write) MSHR misses
system.cpu.dcache.overall_mshr_misses::.cpu.data       769463                       # number of overall MSHR misses
system.cpu.dcache.overall_mshr_misses::total       769463                       # number of overall MSHR misses
system.cpu.dcache.demand_mshr_miss_latency::.cpu.data  18315280000                       # number of demand (read+write) MSHR miss cycles
system.cpu.dcache.demand_mshr_miss_latency::total  18315280000                       # number of demand (read+write) MSHR miss cycles
system.cpu.dcache.overall_mshr_miss_latency::.cpu.data  18499438500                       # number of overall MSHR miss cycles
system.cpu.dcache.overall_mshr_miss_latency::total  18499438500                       # number of overall MSHR miss cycles
system.cpu.dcache.demand_mshr_miss_rate::.cpu.data     0.014747                       # mshr miss rate for demand accesses
system.cpu.dcache.demand_mshr_miss_rate::total     0.014747                       # mshr miss rate for demand accesses
system.cpu.dcache.overall_mshr_miss_rate::.cpu.data     0.014782                       # mshr miss rate for overall accesses
system.cpu.dcache.overall_mshr_miss_rate::total     0.014782                       # mshr miss rate for overall accesses
system.cpu.dcache.demand_avg_mshr_miss_latency::.cpu.data 23864.085589                       # average overall mshr miss latency
system.cpu.dcache.demand_avg_mshr_miss_latency::total 23864.085589                       # average overall mshr miss latency
system.cpu.dcache.overall_avg_mshr_miss_latency::.cpu.data 24042.011767                       # average overall mshr miss latency
system.cpu.dcache.overall_avg_mshr_miss_latency::total 24042.011767                       # average overall mshr miss latency
system.cpu.dcache.replacements                 769206                       # number of replacements
system.cpu.dcache.ReadReq_hits::.cpu.data     40651521                       # number of ReadReq hits
system.cpu.dcache.ReadReq_hits::total        40651521                       # number of ReadReq hits
system.cpu.dcache.ReadReq_misses::.cpu.data       443223                       # number of ReadReq misses
system.cpu.dcache.ReadReq_misses::total        443223                       # number of ReadReq misses
system.cpu.dcache.ReadReq_miss_latency::.cpu.data   8149748000                       # number of ReadReq miss cycles
system.cpu.dcache.ReadReq_miss_latency::total   8149748000                       # number of ReadReq miss cycles
system.cpu.dcache.ReadReq_accesses::.cpu.data     41094744                       # number of ReadReq accesses(hits+misses)
system.cpu.dcache.ReadReq_accesses::total     41094744                       # number of ReadReq accesses(hits+misses)
system.cpu.dcache.ReadReq_miss_rate::.cpu.data     0.010785                       # miss rate for ReadReq accesses
system.cpu.dcache.ReadReq_miss_rate::total     0.010785                       # miss rate for ReadReq accesses
system.cpu.dcache.ReadReq_avg_miss_latency::.cpu.data 18387.466354                       # average ReadReq miss latency
system.cpu.dcache.ReadReq_avg_miss_latency::total 18387.466354                       # average ReadReq miss latency
system.cpu.dcache.ReadReq_mshr_hits::.cpu.data         2330                       # number of ReadReq MSHR hits
system.cpu.dcache.ReadReq_mshr_hits::total         2330                       # number of ReadReq MSHR hits
system.cpu.dcache.ReadReq_mshr_misses::.cpu.data       440893                       # number of ReadReq MSHR misses
system.cpu.dcache.ReadReq_mshr_misses::total       440893                       # number of ReadReq MSHR misses
system.cpu.dcache.ReadReq_mshr_miss_latency::.cpu.data   7552780500                       # number of ReadReq MSHR miss cycles
system.cpu.dcache.ReadReq_mshr_miss_latency::total   7552780500                       # number of ReadReq MSHR miss cycles
system.cpu.dcache.ReadReq_mshr_miss_rate::.cpu.data     0.010729                       # mshr miss rate for ReadReq accesses
system.cpu.dcache.ReadReq_mshr_miss_rate::total     0.010729                       # mshr miss rate for ReadReq accesses
system.cpu.dcache.ReadReq_avg_mshr_miss_latency::.cpu.data 17130.642809                       # average ReadReq mshr miss latency
system.cpu.dcache.ReadReq_avg_mshr_miss_latency::total 17130.642809                       # average ReadReq mshr miss latency
system.cpu.dcache.WriteReq_hits::.cpu.data     10606828                       # number of WriteReq hits
system.cpu.dcache.WriteReq_hits::total       10606828                       # number of WriteReq hits
system.cpu.dcache.WriteReq_misses::.cpu.data       343258                       # number of WriteReq misses
system.cpu.dcache.WriteReq_misses::total       343258                       # number of WriteReq misses
system.cpu.dcache.WriteReq_miss_latency::.cpu.data  12501855000                       # number of WriteReq miss cycles
system.cpu.dcache.WriteReq_miss_latency::total  12501855000                       # number of WriteReq miss cycles
system.cpu.dcache.WriteReq_accesses::.cpu.data     10950086                       # number of WriteReq accesses(hits+misses)
system.cpu.dcache.WriteReq_accesses::total     10950086                       # number of WriteReq accesses(hits+misses)
system.cpu.dcache.WriteReq_miss_rate::.cpu.data     0.031348                       # miss rate for WriteReq accesses
system.cpu.dcache.WriteReq_miss_rate::total     0.031348                       # miss rate for WriteReq accesses
system.cpu.dcache.WriteReq_avg_miss_latency::.cpu.data 36421.161342                       # average WriteReq miss latency
system.cpu.dcache.WriteReq_avg_miss_latency::total 36421.161342                       # average WriteReq miss latency
system.cpu.dcache.WriteReq_mshr_hits::.cpu.data        16668                       # number of WriteReq MSHR hits
system.cpu.dcache.WriteReq_mshr_hits::total        16668                       # number of WriteReq MSHR hits
system.cpu.dcache.WriteReq_mshr_misses::.cpu.data       326590                       # number of WriteReq MSHR misses
system.cpu.dcache.WriteReq_mshr_misses::total       326590                       # number of WriteReq MSHR misses
system.cpu.dcache.WriteReq_mshr_miss_latency::.cpu.data  10762499500                       # number of WriteReq MSHR miss cycles
system.cpu.dcache.WriteReq_mshr_miss_latency::total  10762499500                       # number of WriteReq MSHR miss cycles
system.cpu.dcache.WriteReq_mshr_miss_rate::.cpu.data     0.029825                       # mshr miss rate for WriteReq accesses
system.cpu.dcache.WriteReq_mshr_miss_rate::total     0.029825                       # mshr miss rate for WriteReq accesses
system.cpu.dcache.WriteReq_avg_mshr_miss_latency::.cpu.data 32954.161181                       # average WriteReq mshr miss latency
system.cpu.dcache.WriteReq_avg_mshr_miss_latency::total 32954.161181                       # average WriteReq mshr miss latency
system.cpu.dcache.SoftPFReq_hits::.cpu.data          687                       # number of SoftPFReq hits
system.cpu.dcache.SoftPFReq_hits::total           687                       # number of SoftPFReq hits
system.cpu.dcache.SoftPFReq_misses::.cpu.data         7734                       # number of SoftPFReq misses
system.cpu.dcache.SoftPFReq_misses::total         7734                       # number of SoftPFReq misses
system.cpu.dcache.SoftPFReq_accesses::.cpu.data         8421                       # number of SoftPFReq accesses(hits+misses)
system.cpu.dcache.SoftPFReq_accesses::total         8421                       # number of SoftPFReq accesses(hits+misses)
system.cpu.dcache.SoftPFReq_miss_rate::.cpu.data     0.918418                       # miss rate for SoftPFReq accesses
system.cpu.dcache.SoftPFReq_miss_rate::total     0.918418                       # miss rate for SoftPFReq accesses
system.cpu.dcache.SoftPFReq_mshr_misses::.cpu.data         1980                       # number of SoftPFReq MSHR misses
system.cpu.dcache.SoftPFReq_mshr_misses::total         1980                       # number of SoftPFReq MSHR misses
system.cpu.dcache.SoftPFReq_mshr_miss_latency::.cpu.data    184158500                       # number of SoftPFReq MSHR miss cycles
system.cpu.dcache.SoftPFReq_mshr_miss_latency::total    184158500                       # number of SoftPFReq MSHR miss cycles
system.cpu.dcache.SoftPFReq_mshr_miss_rate::.cpu.data     0.235126                       # mshr miss rate for SoftPFReq accesses
system.cpu.dcache.SoftPFReq_mshr_miss_rate::total     0.235126                       # mshr miss rate for SoftPFReq accesses
system.cpu.dcache.SoftPFReq_avg_mshr_miss_latency::.cpu.data 93009.343434                       # average SoftPFReq mshr miss latency
system.cpu.dcache.SoftPFReq_avg_mshr_miss_latency::total 93009.343434                       # average SoftPFReq mshr miss latency
system.cpu.dcache.LoadLockedReq_hits::.cpu.data           38                       # number of LoadLockedReq hits
system.cpu.dcache.LoadLockedReq_hits::total           38                       # number of LoadLockedReq hits
system.cpu.dcache.LoadLockedReq_accesses::.cpu.data           38                       # number of LoadLockedReq accesses(hits+misses)
system.cpu.dcache.LoadLockedReq_accesses::total           38                       # number of LoadLockedReq accesses(hits+misses)
system.cpu.dcache.StoreCondReq_hits::.cpu.data           38                       # number of StoreCondReq hits
system.cpu.dcache.StoreCondReq_hits::total           38                       # number of StoreCondReq hits
system.cpu.dcache.StoreCondReq_accesses::.cpu.data           38                       # number of StoreCondReq accesses(hits+misses)
system.cpu.dcache.StoreCondReq_accesses::total           38                       # number of StoreCondReq accesses(hits+misses)
system.cpu.dcache.tags.pwrStateResidencyTicks::UNDEFINED  83117510000                       # Cumulative time (in ticks) in various power states
system.cpu.dcache.tags.tagsinuse           251.907427                       # Cycle average of tags in use
system.cpu.dcache.tags.total_refs            52028574                       # Total number of references to valid blocks.
system.cpu.dcache.tags.sampled_refs            769462                       # Sample count of references to valid blocks.
system.cpu.dcache.tags.avg_refs             67.616821                       # Average number of references to valid blocks.
system.cpu.dcache.tags.warmup_cycle            210500                       # Cycle when the warmup percentage was hit.
system.cpu.dcache.tags.occ_blocks::.cpu.data   251.907427                       # Average occupied blocks per requestor
system.cpu.dcache.tags.occ_percent::.cpu.data     0.984013                       # Average percentage of cache occupancy
system.cpu.dcache.tags.occ_percent::total     0.984013                       # Average percentage of cache occupancy
system.cpu.dcache.tags.occ_task_id_blocks::1024          256                       # Occupied blocks per task id
system.cpu.dcache.tags.age_task_id_blocks_1024::0          191                       # Occupied blocks per task id
system.cpu.dcache.tags.age_task_id_blocks_1024::1           64                       # Occupied blocks per task id
system.cpu.dcache.tags.age_task_id_blocks_1024::2            1                       # Occupied blocks per task id
system.cpu.dcache.tags.occ_task_id_percent::1024            1                       # Percentage of cache occupancy per task id
system.cpu.dcache.tags.tag_accesses         104876116                       # Number of tag accesses
system.cpu.dcache.tags.data_accesses        104876116                       # Number of data accesses
system.cpu.itb.walker.pwrStateResidencyTicks::UNDEFINED  83117510000                       # Cumulative time (in ticks) in various power states
system.cpu.itb.stage2_mmu.stage2_tlb.walker.pwrStateResidencyTicks::UNDEFINED  83117510000                       # Cumulative time (in ticks) in various power states

---------- End Simulation Statistics   ----------
