
---------- Begin Simulation Statistics ----------
final_tick                                80004813000                       # Number of ticks from beginning of simulation (restored from checkpoints and never reset)
host_inst_rate                                 200619                       # Simulator instruction rate (inst/s)
host_mem_usage                                 689852                       # Number of bytes of host memory used
host_op_rate                                   201013                       # Simulator op (including micro ops) rate (op/s)
host_seconds                                   498.46                       # Real time elapsed on the host
host_tick_rate                              160504551                       # Simulator tick rate (ticks/s)
sim_freq                                 1000000000000                       # Frequency of simulated ticks
sim_insts                                   100000001                       # Number of instructions simulated
sim_ops                                     100196363                       # Number of ops (including micro ops) simulated
sim_seconds                                  0.080005                       # Number of seconds simulated
sim_ticks                                 80004813000                       # Number of ticks simulated
system.cpu.branchPred.BTBCorrect                    0                       # Number of correct BTB predictions (this stat may not work properly.
system.cpu.branchPred.BTBHitPct             99.615366                       # BTB Hit Percentage
system.cpu.branchPred.BTBHits                 2096243                       # Number of BTB hits
system.cpu.branchPred.BTBLookups              2104337                       # Number of BTB lookups
system.cpu.branchPred.RASInCorrect                  5                       # Number of incorrect RAS predictions.
system.cpu.branchPred.condIncorrect             81379                       # Number of conditional branches incorrect
system.cpu.branchPred.condPredicted           3728862                       # Number of conditional branches predicted
system.cpu.branchPred.indirectHits                301                       # Number of indirect target hits.
system.cpu.branchPred.indirectLookups            1022                       # Number of indirect predictor lookups.
system.cpu.branchPred.indirectMisses              721                       # Number of indirect misses.
system.cpu.branchPred.lookups                 4479260                       # Number of BP lookups
system.cpu.branchPred.usedRAS                   65353                       # Number of times the RAS was used to get a target.
system.cpu.branchPredindirectMispredicted          163                       # Number of mispredicted indirect branches.
system.cpu.committedInsts                   100000001                       # Number of instructions committed
system.cpu.committedOps                     100196363                       # Number of ops (including micro ops) committed
system.cpu.cpi                               1.600096                       # CPI: cycles per instruction
system.cpu.discardedOps                        190747                       # Number of ops (including micro ops) which were discarded before commit
system.cpu.dtb.accesses                             0                       # DTB accesses
system.cpu.dtb.align_faults                         0                       # Number of TLB faults due to alignment restrictions
system.cpu.dtb.domain_faults                        0                       # Number of TLB faults due to domain restrictions
system.cpu.dtb.flush_entries                        0                       # Number of entries that have been flushed from TLB
system.cpu.dtb.flush_tlb                            0                       # Number of times complete TLB was flushed
system.cpu.dtb.flush_tlb_asid                       0                       # Number of times TLB was flushed by ASID
system.cpu.dtb.flush_tlb_mva                        0                       # Number of times TLB was flushed by MVA
system.cpu.dtb.flush_tlb_mva_asid                   0                       # Number of times TLB was flushed by MVA & ASID
system.cpu.dtb.hits                                 0                       # DTB hits
system.cpu.dtb.inst_accesses                        0                       # ITB inst accesses
system.cpu.dtb.inst_hits                            0                       # ITB inst hits
system.cpu.dtb.inst_misses                          0                       # ITB inst misses
system.cpu.dtb.misses                               0                       # DTB misses
system.cpu.dtb.perms_faults                         0                       # Number of TLB faults due to permissions restrictions
system.cpu.dtb.prefetch_faults                      0                       # Number of TLB faults due to prefetch
system.cpu.dtb.read_accesses                        0                       # DTB read accesses
system.cpu.dtb.read_hits                            0                       # DTB read hits
system.cpu.dtb.read_misses                          0                       # DTB read misses
system.cpu.dtb.stage2_mmu.stage2_tlb.accesses            0                       # DTB accesses
system.cpu.dtb.stage2_mmu.stage2_tlb.align_faults            0                       # Number of TLB faults due to alignment restrictions
system.cpu.dtb.stage2_mmu.stage2_tlb.domain_faults            0                       # Number of TLB faults due to domain restrictions
system.cpu.dtb.stage2_mmu.stage2_tlb.flush_entries            0                       # Number of entries that have been flushed from TLB
system.cpu.dtb.stage2_mmu.stage2_tlb.flush_tlb            0                       # Number of times complete TLB was flushed
system.cpu.dtb.stage2_mmu.stage2_tlb.flush_tlb_asid            0                       # Number of times TLB was flushed by ASID
system.cpu.dtb.stage2_mmu.stage2_tlb.flush_tlb_mva            0                       # Number of times TLB was flushed by MVA
system.cpu.dtb.stage2_mmu.stage2_tlb.flush_tlb_mva_asid            0                       # Number of times TLB was flushed by MVA & ASID
system.cpu.dtb.stage2_mmu.stage2_tlb.hits            0                       # DTB hits
system.cpu.dtb.stage2_mmu.stage2_tlb.inst_accesses            0                       # ITB inst accesses
system.cpu.dtb.stage2_mmu.stage2_tlb.inst_hits            0                       # ITB inst hits
system.cpu.dtb.stage2_mmu.stage2_tlb.inst_misses            0                       # ITB inst misses
system.cpu.dtb.stage2_mmu.stage2_tlb.misses            0                       # DTB misses
system.cpu.dtb.stage2_mmu.stage2_tlb.perms_faults            0                       # Number of TLB faults due to permissions restrictions
system.cpu.dtb.stage2_mmu.stage2_tlb.prefetch_faults            0                       # Number of TLB faults due to prefetch
system.cpu.dtb.stage2_mmu.stage2_tlb.read_accesses            0                       # DTB read accesses
system.cpu.dtb.stage2_mmu.stage2_tlb.read_hits            0                       # DTB read hits
system.cpu.dtb.stage2_mmu.stage2_tlb.read_misses            0                       # DTB read misses
system.cpu.dtb.stage2_mmu.stage2_tlb.walker.walkRequestOrigin_Requested::Data            0                       # Table walker requests started/completed, data/inst
system.cpu.dtb.stage2_mmu.stage2_tlb.walker.walkRequestOrigin_Requested::Inst            0                       # Table walker requests started/completed, data/inst
system.cpu.dtb.stage2_mmu.stage2_tlb.walker.walkRequestOrigin_Requested::total            0                       # Table walker requests started/completed, data/inst
system.cpu.dtb.stage2_mmu.stage2_tlb.walker.walkRequestOrigin_Completed::Data            0                       # Table walker requests started/completed, data/inst
system.cpu.dtb.stage2_mmu.stage2_tlb.walker.walkRequestOrigin_Completed::Inst            0                       # Table walker requests started/completed, data/inst
system.cpu.dtb.stage2_mmu.stage2_tlb.walker.walkRequestOrigin_Completed::total            0                       # Table walker requests started/completed, data/inst
system.cpu.dtb.stage2_mmu.stage2_tlb.walker.walkRequestOrigin::total            0                       # Table walker requests started/completed, data/inst
system.cpu.dtb.stage2_mmu.stage2_tlb.walker.walks            0                       # Table walker walks requested
system.cpu.dtb.stage2_mmu.stage2_tlb.write_accesses            0                       # DTB write accesses
system.cpu.dtb.stage2_mmu.stage2_tlb.write_hits            0                       # DTB write hits
system.cpu.dtb.stage2_mmu.stage2_tlb.write_misses            0                       # DTB write misses
system.cpu.dtb.walker.walkRequestOrigin_Requested::Data            0                       # Table walker requests started/completed, data/inst
system.cpu.dtb.walker.walkRequestOrigin_Requested::Inst            0                       # Table walker requests started/completed, data/inst
system.cpu.dtb.walker.walkRequestOrigin_Requested::total            0                       # Table walker requests started/completed, data/inst
system.cpu.dtb.walker.walkRequestOrigin_Completed::Data            0                       # Table walker requests started/completed, data/inst
system.cpu.dtb.walker.walkRequestOrigin_Completed::Inst            0                       # Table walker requests started/completed, data/inst
system.cpu.dtb.walker.walkRequestOrigin_Completed::total            0                       # Table walker requests started/completed, data/inst
system.cpu.dtb.walker.walkRequestOrigin::total            0                       # Table walker requests started/completed, data/inst
system.cpu.dtb.walker.walks                         0                       # Table walker walks requested
system.cpu.dtb.write_accesses                       0                       # DTB write accesses
system.cpu.dtb.write_hits                           0                       # DTB write hits
system.cpu.dtb.write_misses                         0                       # DTB write misses
system.cpu.fetch2.amo_instructions                  0                       # Number of memory atomic instructions successfully decoded
system.cpu.fetch2.fp_instructions                   0                       # Number of floating point instructions successfully decoded
system.cpu.fetch2.int_instructions           42615056                       # Number of integer instructions successfully decoded
system.cpu.fetch2.load_instructions          43408087                       # Number of memory load instructions successfully decoded
system.cpu.fetch2.store_instructions         11002177                       # Number of memory store instructions successfully decoded
system.cpu.fetch2.vec_instructions                  0                       # Number of SIMD instructions successfully decoded
system.cpu.idleCycles                        27820958                       # Total number of cycles that the object has spent stopped
system.cpu.ipc                               0.624962                       # IPC: instructions per cycle
system.cpu.itb.accesses                             0                       # DTB accesses
system.cpu.itb.align_faults                         0                       # Number of TLB faults due to alignment restrictions
system.cpu.itb.domain_faults                        0                       # Number of TLB faults due to domain restrictions
system.cpu.itb.flush_entries                        0                       # Number of entries that have been flushed from TLB
system.cpu.itb.flush_tlb                            0                       # Number of times complete TLB was flushed
system.cpu.itb.flush_tlb_asid                       0                       # Number of times TLB was flushed by ASID
system.cpu.itb.flush_tlb_mva                        0                       # Number of times TLB was flushed by MVA
system.cpu.itb.flush_tlb_mva_asid                   0                       # Number of times TLB was flushed by MVA & ASID
system.cpu.itb.hits                                 0                       # DTB hits
system.cpu.itb.inst_accesses                        0                       # ITB inst accesses
system.cpu.itb.inst_hits                            0                       # ITB inst hits
system.cpu.itb.inst_misses                          0                       # ITB inst misses
system.cpu.itb.misses                               0                       # DTB misses
system.cpu.itb.perms_faults                         0                       # Number of TLB faults due to permissions restrictions
system.cpu.itb.prefetch_faults                      0                       # Number of TLB faults due to prefetch
system.cpu.itb.read_accesses                        0                       # DTB read accesses
system.cpu.itb.read_hits                            0                       # DTB read hits
system.cpu.itb.read_misses                          0                       # DTB read misses
system.cpu.itb.stage2_mmu.stage2_tlb.accesses            0                       # DTB accesses
system.cpu.itb.stage2_mmu.stage2_tlb.align_faults            0                       # Number of TLB faults due to alignment restrictions
system.cpu.itb.stage2_mmu.stage2_tlb.domain_faults            0                       # Number of TLB faults due to domain restrictions
system.cpu.itb.stage2_mmu.stage2_tlb.flush_entries            0                       # Number of entries that have been flushed from TLB
system.cpu.itb.stage2_mmu.stage2_tlb.flush_tlb            0                       # Number of times complete TLB was flushed
system.cpu.itb.stage2_mmu.stage2_tlb.flush_tlb_asid            0                       # Number of times TLB was flushed by ASID
system.cpu.itb.stage2_mmu.stage2_tlb.flush_tlb_mva            0                       # Number of times TLB was flushed by MVA
system.cpu.itb.stage2_mmu.stage2_tlb.flush_tlb_mva_asid            0                       # Number of times TLB was flushed by MVA & ASID
system.cpu.itb.stage2_mmu.stage2_tlb.hits            0                       # DTB hits
system.cpu.itb.stage2_mmu.stage2_tlb.inst_accesses            0                       # ITB inst accesses
system.cpu.itb.stage2_mmu.stage2_tlb.inst_hits            0                       # ITB inst hits
system.cpu.itb.stage2_mmu.stage2_tlb.inst_misses            0                       # ITB inst misses
system.cpu.itb.stage2_mmu.stage2_tlb.misses            0                       # DTB misses
system.cpu.itb.stage2_mmu.stage2_tlb.perms_faults            0                       # Number of TLB faults due to permissions restrictions
system.cpu.itb.stage2_mmu.stage2_tlb.prefetch_faults            0                       # Number of TLB faults due to prefetch
system.cpu.itb.stage2_mmu.stage2_tlb.read_accesses            0                       # DTB read accesses
system.cpu.itb.stage2_mmu.stage2_tlb.read_hits            0                       # DTB read hits
system.cpu.itb.stage2_mmu.stage2_tlb.read_misses            0                       # DTB read misses
system.cpu.itb.stage2_mmu.stage2_tlb.walker.walkRequestOrigin_Requested::Data            0                       # Table walker requests started/completed, data/inst
system.cpu.itb.stage2_mmu.stage2_tlb.walker.walkRequestOrigin_Requested::Inst            0                       # Table walker requests started/completed, data/inst
system.cpu.itb.stage2_mmu.stage2_tlb.walker.walkRequestOrigin_Requested::total            0                       # Table walker requests started/completed, data/inst
system.cpu.itb.stage2_mmu.stage2_tlb.walker.walkRequestOrigin_Completed::Data            0                       # Table walker requests started/completed, data/inst
system.cpu.itb.stage2_mmu.stage2_tlb.walker.walkRequestOrigin_Completed::Inst            0                       # Table walker requests started/completed, data/inst
system.cpu.itb.stage2_mmu.stage2_tlb.walker.walkRequestOrigin_Completed::total            0                       # Table walker requests started/completed, data/inst
system.cpu.itb.stage2_mmu.stage2_tlb.walker.walkRequestOrigin::total            0                       # Table walker requests started/completed, data/inst
system.cpu.itb.stage2_mmu.stage2_tlb.walker.walks            0                       # Table walker walks requested
system.cpu.itb.stage2_mmu.stage2_tlb.write_accesses            0                       # DTB write accesses
system.cpu.itb.stage2_mmu.stage2_tlb.write_hits            0                       # DTB write hits
system.cpu.itb.stage2_mmu.stage2_tlb.write_misses            0                       # DTB write misses
system.cpu.itb.walker.walkRequestOrigin_Requested::Data            0                       # Table walker requests started/completed, data/inst
system.cpu.itb.walker.walkRequestOrigin_Requested::Inst            0                       # Table walker requests started/completed, data/inst
system.cpu.itb.walker.walkRequestOrigin_Requested::total            0                       # Table walker requests started/completed, data/inst
system.cpu.itb.walker.walkRequestOrigin_Completed::Data            0                       # Table walker requests started/completed, data/inst
system.cpu.itb.walker.walkRequestOrigin_Completed::Inst            0                       # Table walker requests started/completed, data/inst
system.cpu.itb.walker.walkRequestOrigin_Completed::total            0                       # Table walker requests started/completed, data/inst
system.cpu.itb.walker.walkRequestOrigin::total            0                       # Table walker requests started/completed, data/inst
system.cpu.itb.walker.walks                         0                       # Table walker walks requested
system.cpu.itb.write_accesses                       0                       # DTB write accesses
system.cpu.itb.write_hits                           0                       # DTB write hits
system.cpu.itb.write_misses                         0                       # DTB write misses
system.cpu.numCycles                        160009626                       # number of cpu cycles simulated
system.cpu.numFetchSuspends                         0                       # Number of times Execute suspended instruction fetching
system.cpu.numWorkItemsCompleted                    0                       # number of work items this cpu completed
system.cpu.numWorkItemsStarted                      0                       # number of work items this cpu started
system.cpu.op_class_0::No_OpClass                   0      0.00%      0.00% # Class of committed instruction
system.cpu.op_class_0::IntAlu                46531400     46.44%     46.44% # Class of committed instruction
system.cpu.op_class_0::IntMult                  20720      0.02%     46.46% # Class of committed instruction
system.cpu.op_class_0::IntDiv                       0      0.00%     46.46% # Class of committed instruction
system.cpu.op_class_0::FloatAdd                     0      0.00%     46.46% # Class of committed instruction
system.cpu.op_class_0::FloatCmp                     0      0.00%     46.46% # Class of committed instruction
system.cpu.op_class_0::FloatCvt                     0      0.00%     46.46% # Class of committed instruction
system.cpu.op_class_0::FloatMult                    0      0.00%     46.46% # Class of committed instruction
system.cpu.op_class_0::FloatMultAcc                 0      0.00%     46.46% # Class of committed instruction
system.cpu.op_class_0::FloatDiv                     0      0.00%     46.46% # Class of committed instruction
system.cpu.op_class_0::FloatMisc                    0      0.00%     46.46% # Class of committed instruction
system.cpu.op_class_0::FloatSqrt                    0      0.00%     46.46% # Class of committed instruction
system.cpu.op_class_0::SimdAdd                      0      0.00%     46.46% # Class of committed instruction
system.cpu.op_class_0::SimdAddAcc                   0      0.00%     46.46% # Class of committed instruction
system.cpu.op_class_0::SimdAlu                      0      0.00%     46.46% # Class of committed instruction
system.cpu.op_class_0::SimdCmp                      0      0.00%     46.46% # Class of committed instruction
system.cpu.op_class_0::SimdCvt                      0      0.00%     46.46% # Class of committed instruction
system.cpu.op_class_0::SimdMisc                     0      0.00%     46.46% # Class of committed instruction
system.cpu.op_class_0::SimdMult                     0      0.00%     46.46% # Class of committed instruction
system.cpu.op_class_0::SimdMultAcc                  0      0.00%     46.46% # Class of committed instruction
system.cpu.op_class_0::SimdShift                    0      0.00%     46.46% # Class of committed instruction
system.cpu.op_class_0::SimdShiftAcc                 0      0.00%     46.46% # Class of committed instruction
system.cpu.op_class_0::SimdDiv                      0      0.00%     46.46% # Class of committed instruction
system.cpu.op_class_0::SimdSqrt                     0      0.00%     46.46% # Class of committed instruction
system.cpu.op_class_0::SimdFloatAdd                 0      0.00%     46.46% # Class of committed instruction
system.cpu.op_class_0::SimdFloatAlu                 0      0.00%     46.46% # Class of committed instruction
system.cpu.op_class_0::SimdFloatCmp                 0      0.00%     46.46% # Class of committed instruction
system.cpu.op_class_0::SimdFloatCvt                 0      0.00%     46.46% # Class of committed instruction
system.cpu.op_class_0::SimdFloatDiv                 0      0.00%     46.46% # Class of committed instruction
system.cpu.op_class_0::SimdFloatMisc               18      0.00%     46.46% # Class of committed instruction
system.cpu.op_class_0::SimdFloatMult                0      0.00%     46.46% # Class of committed instruction
system.cpu.op_class_0::SimdFloatMultAcc             0      0.00%     46.46% # Class of committed instruction
system.cpu.op_class_0::SimdFloatSqrt                0      0.00%     46.46% # Class of committed instruction
system.cpu.op_class_0::SimdReduceAdd                0      0.00%     46.46% # Class of committed instruction
system.cpu.op_class_0::SimdReduceAlu                0      0.00%     46.46% # Class of committed instruction
system.cpu.op_class_0::SimdReduceCmp                0      0.00%     46.46% # Class of committed instruction
system.cpu.op_class_0::SimdFloatReduceAdd            0      0.00%     46.46% # Class of committed instruction
system.cpu.op_class_0::SimdFloatReduceCmp            0      0.00%     46.46% # Class of committed instruction
system.cpu.op_class_0::SimdAes                      0      0.00%     46.46% # Class of committed instruction
system.cpu.op_class_0::SimdAesMix                   0      0.00%     46.46% # Class of committed instruction
system.cpu.op_class_0::SimdSha1Hash                 0      0.00%     46.46% # Class of committed instruction
system.cpu.op_class_0::SimdSha1Hash2                0      0.00%     46.46% # Class of committed instruction
system.cpu.op_class_0::SimdSha256Hash               0      0.00%     46.46% # Class of committed instruction
system.cpu.op_class_0::SimdSha256Hash2              0      0.00%     46.46% # Class of committed instruction
system.cpu.op_class_0::SimdShaSigma2                0      0.00%     46.46% # Class of committed instruction
system.cpu.op_class_0::SimdShaSigma3                0      0.00%     46.46% # Class of committed instruction
system.cpu.op_class_0::SimdPredAlu                  0      0.00%     46.46% # Class of committed instruction
system.cpu.op_class_0::MemRead               42693601     42.61%     89.07% # Class of committed instruction
system.cpu.op_class_0::MemWrite              10950624     10.93%    100.00% # Class of committed instruction
system.cpu.op_class_0::FloatMemRead                 0      0.00%    100.00% # Class of committed instruction
system.cpu.op_class_0::FloatMemWrite                0      0.00%    100.00% # Class of committed instruction
system.cpu.op_class_0::IprAccess                    0      0.00%    100.00% # Class of committed instruction
system.cpu.op_class_0::InstPrefetch                 0      0.00%    100.00% # Class of committed instruction
system.cpu.op_class_0::total                100196363                       # Class of committed instruction
system.cpu.tickCycles                       132188668                       # Number of cycles that the object actually ticked
system.cpu.workload.numSyscalls                    84                       # Number of system calls
system.membus.snoop_filter.hit_multi_requests            0                       # Number of requests hitting in the snoop filter with multiple (>1) holders of the requested data.
system.membus.snoop_filter.hit_multi_snoops            0                       # Number of snoops hitting in the snoop filter with multiple (>1) holders of the requested data.
system.membus.snoop_filter.hit_single_requests        56705                       # Number of requests hitting in the snoop filter with a single holder of the requested data.
system.membus.snoop_filter.hit_single_snoops            0                       # Number of snoops hitting in the snoop filter with a single holder of the requested data.
system.membus.snoop_filter.tot_requests        129966                       # Total number of requests made to the snoop filter.
system.membus.snoop_filter.tot_snoops               0                       # Total number of snoops made to the snoop filter.
system.tol2bus.snoop_filter.hit_multi_requests          121                       # Number of requests hitting in the snoop filter with multiple (>1) holders of the requested data.
system.tol2bus.snoop_filter.hit_multi_snoops            0                       # Number of snoops hitting in the snoop filter with multiple (>1) holders of the requested data.
system.tol2bus.snoop_filter.hit_single_requests       504332                       # Number of requests hitting in the snoop filter with a single holder of the requested data.
system.tol2bus.snoop_filter.hit_single_snoops          217                       # Number of snoops hitting in the snoop filter with a single holder of the requested data.
system.tol2bus.snoop_filter.tot_requests      1009390                       # Total number of requests made to the snoop filter.
system.tol2bus.snoop_filter.tot_snoops            217                       # Total number of snoops made to the snoop filter.
system.membus.pwrStateResidencyTicks::UNDEFINED  80004813000                       # Cumulative time (in ticks) in various power states
system.membus.trans_dist::ReadResp              18289                       # Transaction distribution
system.membus.trans_dist::WritebackDirty        40176                       # Transaction distribution
system.membus.trans_dist::CleanEvict            16523                       # Transaction distribution
system.membus.trans_dist::ReadExReq             54978                       # Transaction distribution
system.membus.trans_dist::ReadExResp            54978                       # Transaction distribution
system.membus.trans_dist::ReadSharedReq         18289                       # Transaction distribution
system.membus.pkt_count_system.l2.mem_side::system.mem_ctrls.port       203233                       # Packet count per connected master and slave (bytes)
system.membus.pkt_count::total                 203233                       # Packet count per connected master and slave (bytes)
system.membus.pkt_size_system.l2.mem_side::system.mem_ctrls.port     29041408                       # Cumulative packet size per connected master and slave (bytes)
system.membus.pkt_size::total                29041408                       # Cumulative packet size per connected master and slave (bytes)
system.membus.snoops                                0                       # Total snoops (count)
system.membus.snoopTraffic                          0                       # Total snoop traffic (bytes)
system.membus.snoop_fanout::samples             73267                       # Request fanout histogram
system.membus.snoop_fanout::mean                    0                       # Request fanout histogram
system.membus.snoop_fanout::stdev                   0                       # Request fanout histogram
system.membus.snoop_fanout::underflows              0      0.00%      0.00% # Request fanout histogram
system.membus.snoop_fanout::0                   73267    100.00%    100.00% # Request fanout histogram
system.membus.snoop_fanout::1                       0      0.00%    100.00% # Request fanout histogram
system.membus.snoop_fanout::overflows               0      0.00%    100.00% # Request fanout histogram
system.membus.snoop_fanout::min_value               0                       # Request fanout histogram
system.membus.snoop_fanout::max_value               0                       # Request fanout histogram
system.membus.snoop_fanout::total               73267                       # Request fanout histogram
system.membus.respLayer1.occupancy         1273600750                       # Layer occupancy (ticks)
system.membus.respLayer1.utilization              1.6                       # Layer utilization (%)
system.membus.reqLayer0.occupancy           794262000                       # Layer occupancy (ticks)
system.membus.reqLayer0.utilization               1.0                       # Layer utilization (%)
system.tol2bus.pwrStateResidencyTicks::UNDEFINED  80004813000                       # Cumulative time (in ticks) in various power states
system.tol2bus.trans_dist::ReadResp            261838                       # Transaction distribution
system.tol2bus.trans_dist::WritebackDirty       523701                       # Transaction distribution
system.tol2bus.trans_dist::WritebackClean           73                       # Transaction distribution
system.tol2bus.trans_dist::CleanEvict           37472                       # Transaction distribution
system.tol2bus.trans_dist::ReadExReq           243222                       # Transaction distribution
system.tol2bus.trans_dist::ReadExResp          243221                       # Transaction distribution
system.tol2bus.trans_dist::ReadCleanReq           290                       # Transaction distribution
system.tol2bus.trans_dist::ReadSharedReq       261548                       # Transaction distribution
system.tol2bus.pkt_count_system.cpu.icache.mem_side::system.l2.cpu_side          653                       # Packet count per connected master and slave (bytes)
system.tol2bus.pkt_count_system.cpu.dcache.mem_side::system.l2.cpu_side      1513796                       # Packet count per connected master and slave (bytes)
system.tol2bus.pkt_count::total               1514449                       # Packet count per connected master and slave (bytes)
system.tol2bus.pkt_size_system.cpu.icache.mem_side::system.l2.cpu_side        92928                       # Cumulative packet size per connected master and slave (bytes)
system.tol2bus.pkt_size_system.cpu.dcache.mem_side::system.l2.cpu_side    253003264                       # Cumulative packet size per connected master and slave (bytes)
system.tol2bus.pkt_size::total              253096192                       # Cumulative packet size per connected master and slave (bytes)
system.tol2bus.snoops                           56916                       # Total snoops (count)
system.tol2bus.snoopTraffic                  10285056                       # Total snoop traffic (bytes)
system.tol2bus.snoop_fanout::samples           561976                       # Request fanout histogram
system.tol2bus.snoop_fanout::mean            0.000605                       # Request fanout histogram
system.tol2bus.snoop_fanout::stdev           0.024589                       # Request fanout histogram
system.tol2bus.snoop_fanout::underflows             0      0.00%      0.00% # Request fanout histogram
system.tol2bus.snoop_fanout::0                 561636     99.94%     99.94% # Request fanout histogram
system.tol2bus.snoop_fanout::1                    340      0.06%    100.00% # Request fanout histogram
system.tol2bus.snoop_fanout::2                      0      0.00%    100.00% # Request fanout histogram
system.tol2bus.snoop_fanout::overflows              0      0.00%    100.00% # Request fanout histogram
system.tol2bus.snoop_fanout::min_value              0                       # Request fanout histogram
system.tol2bus.snoop_fanout::max_value              1                       # Request fanout histogram
system.tol2bus.snoop_fanout::total             561976                       # Request fanout histogram
system.tol2bus.reqLayer0.occupancy         2439087000                       # Layer occupancy (ticks)
system.tol2bus.reqLayer0.utilization              3.0                       # Layer utilization (%)
system.tol2bus.respLayer1.occupancy        2271462995                       # Layer occupancy (ticks)
system.tol2bus.respLayer1.utilization             2.8                       # Layer utilization (%)
system.tol2bus.respLayer0.occupancy           1305000                       # Layer occupancy (ticks)
system.tol2bus.respLayer0.utilization             0.0                       # Layer utilization (%)
system.voltage_domain.voltage                       1                       # Voltage in Volts
system.clk_domain.clock                          1000                       # Clock period in ticks
system.l2.pwrStateResidencyTicks::UNDEFINED  80004813000                       # Cumulative time (in ticks) in various power states
system.l2.demand_hits::.cpu.inst                   27                       # number of demand (read+write) hits
system.l2.demand_hits::.cpu.data               431761                       # number of demand (read+write) hits
system.l2.demand_hits::total                   431788                       # number of demand (read+write) hits
system.l2.overall_hits::.cpu.inst                  27                       # number of overall hits
system.l2.overall_hits::.cpu.data              431761                       # number of overall hits
system.l2.overall_hits::total                  431788                       # number of overall hits
system.l2.demand_misses::.cpu.inst                263                       # number of demand (read+write) misses
system.l2.demand_misses::.cpu.data              73009                       # number of demand (read+write) misses
system.l2.demand_misses::total                  73272                       # number of demand (read+write) misses
system.l2.overall_misses::.cpu.inst               263                       # number of overall misses
system.l2.overall_misses::.cpu.data             73009                       # number of overall misses
system.l2.overall_misses::total                 73272                       # number of overall misses
system.l2.demand_miss_latency::.cpu.inst     25492500                       # number of demand (read+write) miss cycles
system.l2.demand_miss_latency::.cpu.data   8736289000                       # number of demand (read+write) miss cycles
system.l2.demand_miss_latency::total       8761781500                       # number of demand (read+write) miss cycles
system.l2.overall_miss_latency::.cpu.inst     25492500                       # number of overall miss cycles
system.l2.overall_miss_latency::.cpu.data   8736289000                       # number of overall miss cycles
system.l2.overall_miss_latency::total      8761781500                       # number of overall miss cycles
system.l2.demand_accesses::.cpu.inst              290                       # number of demand (read+write) accesses
system.l2.demand_accesses::.cpu.data           504770                       # number of demand (read+write) accesses
system.l2.demand_accesses::total               505060                       # number of demand (read+write) accesses
system.l2.overall_accesses::.cpu.inst             290                       # number of overall (read+write) accesses
system.l2.overall_accesses::.cpu.data          504770                       # number of overall (read+write) accesses
system.l2.overall_accesses::total              505060                       # number of overall (read+write) accesses
system.l2.demand_miss_rate::.cpu.inst        0.906897                       # miss rate for demand accesses
system.l2.demand_miss_rate::.cpu.data        0.144638                       # miss rate for demand accesses
system.l2.demand_miss_rate::total            0.145076                       # miss rate for demand accesses
system.l2.overall_miss_rate::.cpu.inst       0.906897                       # miss rate for overall accesses
system.l2.overall_miss_rate::.cpu.data       0.144638                       # miss rate for overall accesses
system.l2.overall_miss_rate::total           0.145076                       # miss rate for overall accesses
system.l2.demand_avg_miss_latency::.cpu.inst 96929.657795                       # average overall miss latency
system.l2.demand_avg_miss_latency::.cpu.data 119660.439124                       # average overall miss latency
system.l2.demand_avg_miss_latency::total 119578.850038                       # average overall miss latency
system.l2.overall_avg_miss_latency::.cpu.inst 96929.657795                       # average overall miss latency
system.l2.overall_avg_miss_latency::.cpu.data 119660.439124                       # average overall miss latency
system.l2.overall_avg_miss_latency::total 119578.850038                       # average overall miss latency
system.l2.blocked_cycles::no_mshrs                  0                       # number of cycles access was blocked
system.l2.blocked_cycles::no_targets                0                       # number of cycles access was blocked
system.l2.blocked::no_mshrs                         0                       # number of cycles access was blocked
system.l2.blocked::no_targets                       0                       # number of cycles access was blocked
system.l2.avg_blocked_cycles::no_mshrs            nan                       # average number of cycles each access was blocked
system.l2.avg_blocked_cycles::no_targets          nan                       # average number of cycles each access was blocked
system.l2.writebacks::.writebacks               40176                       # number of writebacks
system.l2.writebacks::total                     40176                       # number of writebacks
system.l2.demand_mshr_hits::.cpu.data               5                       # number of demand (read+write) MSHR hits
system.l2.demand_mshr_hits::total                   5                       # number of demand (read+write) MSHR hits
system.l2.overall_mshr_hits::.cpu.data              5                       # number of overall MSHR hits
system.l2.overall_mshr_hits::total                  5                       # number of overall MSHR hits
system.l2.demand_mshr_misses::.cpu.inst           263                       # number of demand (read+write) MSHR misses
system.l2.demand_mshr_misses::.cpu.data         73004                       # number of demand (read+write) MSHR misses
system.l2.demand_mshr_misses::total             73267                       # number of demand (read+write) MSHR misses
system.l2.overall_mshr_misses::.cpu.inst          263                       # number of overall MSHR misses
system.l2.overall_mshr_misses::.cpu.data        73004                       # number of overall MSHR misses
system.l2.overall_mshr_misses::total            73267                       # number of overall MSHR misses
system.l2.demand_mshr_miss_latency::.cpu.inst     22862500                       # number of demand (read+write) MSHR miss cycles
system.l2.demand_mshr_miss_latency::.cpu.data   8005757000                       # number of demand (read+write) MSHR miss cycles
system.l2.demand_mshr_miss_latency::total   8028619500                       # number of demand (read+write) MSHR miss cycles
system.l2.overall_mshr_miss_latency::.cpu.inst     22862500                       # number of overall MSHR miss cycles
system.l2.overall_mshr_miss_latency::.cpu.data   8005757000                       # number of overall MSHR miss cycles
system.l2.overall_mshr_miss_latency::total   8028619500                       # number of overall MSHR miss cycles
system.l2.demand_mshr_miss_rate::.cpu.inst     0.906897                       # mshr miss rate for demand accesses
system.l2.demand_mshr_miss_rate::.cpu.data     0.144628                       # mshr miss rate for demand accesses
system.l2.demand_mshr_miss_rate::total       0.145066                       # mshr miss rate for demand accesses
system.l2.overall_mshr_miss_rate::.cpu.inst     0.906897                       # mshr miss rate for overall accesses
system.l2.overall_mshr_miss_rate::.cpu.data     0.144628                       # mshr miss rate for overall accesses
system.l2.overall_mshr_miss_rate::total      0.145066                       # mshr miss rate for overall accesses
system.l2.demand_avg_mshr_miss_latency::.cpu.inst 86929.657795                       # average overall mshr miss latency
system.l2.demand_avg_mshr_miss_latency::.cpu.data 109661.895239                       # average overall mshr miss latency
system.l2.demand_avg_mshr_miss_latency::total 109580.295358                       # average overall mshr miss latency
system.l2.overall_avg_mshr_miss_latency::.cpu.inst 86929.657795                       # average overall mshr miss latency
system.l2.overall_avg_mshr_miss_latency::.cpu.data 109661.895239                       # average overall mshr miss latency
system.l2.overall_avg_mshr_miss_latency::total 109580.295358                       # average overall mshr miss latency
system.l2.replacements                          56916                       # number of replacements
system.l2.WritebackDirty_hits::.writebacks       483525                       # number of WritebackDirty hits
system.l2.WritebackDirty_hits::total           483525                       # number of WritebackDirty hits
system.l2.WritebackDirty_accesses::.writebacks       483525                       # number of WritebackDirty accesses(hits+misses)
system.l2.WritebackDirty_accesses::total       483525                       # number of WritebackDirty accesses(hits+misses)
system.l2.WritebackClean_hits::.writebacks           67                       # number of WritebackClean hits
system.l2.WritebackClean_hits::total               67                       # number of WritebackClean hits
system.l2.WritebackClean_accesses::.writebacks           67                       # number of WritebackClean accesses(hits+misses)
system.l2.WritebackClean_accesses::total           67                       # number of WritebackClean accesses(hits+misses)
system.l2.ReadExReq_hits::.cpu.data            188244                       # number of ReadExReq hits
system.l2.ReadExReq_hits::total                188244                       # number of ReadExReq hits
system.l2.ReadExReq_misses::.cpu.data           54978                       # number of ReadExReq misses
system.l2.ReadExReq_misses::total               54978                       # number of ReadExReq misses
system.l2.ReadExReq_miss_latency::.cpu.data   6925818500                       # number of ReadExReq miss cycles
system.l2.ReadExReq_miss_latency::total    6925818500                       # number of ReadExReq miss cycles
system.l2.ReadExReq_accesses::.cpu.data        243222                       # number of ReadExReq accesses(hits+misses)
system.l2.ReadExReq_accesses::total            243222                       # number of ReadExReq accesses(hits+misses)
system.l2.ReadExReq_miss_rate::.cpu.data     0.226040                       # miss rate for ReadExReq accesses
system.l2.ReadExReq_miss_rate::total         0.226040                       # miss rate for ReadExReq accesses
system.l2.ReadExReq_avg_miss_latency::.cpu.data 125974.362472                       # average ReadExReq miss latency
system.l2.ReadExReq_avg_miss_latency::total 125974.362472                       # average ReadExReq miss latency
system.l2.ReadExReq_mshr_misses::.cpu.data        54978                       # number of ReadExReq MSHR misses
system.l2.ReadExReq_mshr_misses::total          54978                       # number of ReadExReq MSHR misses
system.l2.ReadExReq_mshr_miss_latency::.cpu.data   6376038500                       # number of ReadExReq MSHR miss cycles
system.l2.ReadExReq_mshr_miss_latency::total   6376038500                       # number of ReadExReq MSHR miss cycles
system.l2.ReadExReq_mshr_miss_rate::.cpu.data     0.226040                       # mshr miss rate for ReadExReq accesses
system.l2.ReadExReq_mshr_miss_rate::total     0.226040                       # mshr miss rate for ReadExReq accesses
system.l2.ReadExReq_avg_mshr_miss_latency::.cpu.data 115974.362472                       # average ReadExReq mshr miss latency
system.l2.ReadExReq_avg_mshr_miss_latency::total 115974.362472                       # average ReadExReq mshr miss latency
system.l2.ReadCleanReq_hits::.cpu.inst             27                       # number of ReadCleanReq hits
system.l2.ReadCleanReq_hits::total                 27                       # number of ReadCleanReq hits
system.l2.ReadCleanReq_misses::.cpu.inst          263                       # number of ReadCleanReq misses
system.l2.ReadCleanReq_misses::total              263                       # number of ReadCleanReq misses
system.l2.ReadCleanReq_miss_latency::.cpu.inst     25492500                       # number of ReadCleanReq miss cycles
system.l2.ReadCleanReq_miss_latency::total     25492500                       # number of ReadCleanReq miss cycles
system.l2.ReadCleanReq_accesses::.cpu.inst          290                       # number of ReadCleanReq accesses(hits+misses)
system.l2.ReadCleanReq_accesses::total            290                       # number of ReadCleanReq accesses(hits+misses)
system.l2.ReadCleanReq_miss_rate::.cpu.inst     0.906897                       # miss rate for ReadCleanReq accesses
system.l2.ReadCleanReq_miss_rate::total      0.906897                       # miss rate for ReadCleanReq accesses
system.l2.ReadCleanReq_avg_miss_latency::.cpu.inst 96929.657795                       # average ReadCleanReq miss latency
system.l2.ReadCleanReq_avg_miss_latency::total 96929.657795                       # average ReadCleanReq miss latency
system.l2.ReadCleanReq_mshr_misses::.cpu.inst          263                       # number of ReadCleanReq MSHR misses
system.l2.ReadCleanReq_mshr_misses::total          263                       # number of ReadCleanReq MSHR misses
system.l2.ReadCleanReq_mshr_miss_latency::.cpu.inst     22862500                       # number of ReadCleanReq MSHR miss cycles
system.l2.ReadCleanReq_mshr_miss_latency::total     22862500                       # number of ReadCleanReq MSHR miss cycles
system.l2.ReadCleanReq_mshr_miss_rate::.cpu.inst     0.906897                       # mshr miss rate for ReadCleanReq accesses
system.l2.ReadCleanReq_mshr_miss_rate::total     0.906897                       # mshr miss rate for ReadCleanReq accesses
system.l2.ReadCleanReq_avg_mshr_miss_latency::.cpu.inst 86929.657795                       # average ReadCleanReq mshr miss latency
system.l2.ReadCleanReq_avg_mshr_miss_latency::total 86929.657795                       # average ReadCleanReq mshr miss latency
system.l2.ReadSharedReq_hits::.cpu.data        243517                       # number of ReadSharedReq hits
system.l2.ReadSharedReq_hits::total            243517                       # number of ReadSharedReq hits
system.l2.ReadSharedReq_misses::.cpu.data        18031                       # number of ReadSharedReq misses
system.l2.ReadSharedReq_misses::total           18031                       # number of ReadSharedReq misses
system.l2.ReadSharedReq_miss_latency::.cpu.data   1810470500                       # number of ReadSharedReq miss cycles
system.l2.ReadSharedReq_miss_latency::total   1810470500                       # number of ReadSharedReq miss cycles
system.l2.ReadSharedReq_accesses::.cpu.data       261548                       # number of ReadSharedReq accesses(hits+misses)
system.l2.ReadSharedReq_accesses::total        261548                       # number of ReadSharedReq accesses(hits+misses)
system.l2.ReadSharedReq_miss_rate::.cpu.data     0.068940                       # miss rate for ReadSharedReq accesses
system.l2.ReadSharedReq_miss_rate::total     0.068940                       # miss rate for ReadSharedReq accesses
system.l2.ReadSharedReq_avg_miss_latency::.cpu.data 100408.768232                       # average ReadSharedReq miss latency
system.l2.ReadSharedReq_avg_miss_latency::total 100408.768232                       # average ReadSharedReq miss latency
system.l2.ReadSharedReq_mshr_hits::.cpu.data            5                       # number of ReadSharedReq MSHR hits
system.l2.ReadSharedReq_mshr_hits::total            5                       # number of ReadSharedReq MSHR hits
system.l2.ReadSharedReq_mshr_misses::.cpu.data        18026                       # number of ReadSharedReq MSHR misses
system.l2.ReadSharedReq_mshr_misses::total        18026                       # number of ReadSharedReq MSHR misses
system.l2.ReadSharedReq_mshr_miss_latency::.cpu.data   1629718500                       # number of ReadSharedReq MSHR miss cycles
system.l2.ReadSharedReq_mshr_miss_latency::total   1629718500                       # number of ReadSharedReq MSHR miss cycles
system.l2.ReadSharedReq_mshr_miss_rate::.cpu.data     0.068920                       # mshr miss rate for ReadSharedReq accesses
system.l2.ReadSharedReq_mshr_miss_rate::total     0.068920                       # mshr miss rate for ReadSharedReq accesses
system.l2.ReadSharedReq_avg_mshr_miss_latency::.cpu.data 90409.325419                       # average ReadSharedReq mshr miss latency
system.l2.ReadSharedReq_avg_mshr_miss_latency::total 90409.325419                       # average ReadSharedReq mshr miss latency
system.l2.tags.pwrStateResidencyTicks::UNDEFINED  80004813000                       # Cumulative time (in ticks) in various power states
system.l2.tags.tagsinuse                 15839.005142                       # Cycle average of tags in use
system.l2.tags.total_refs                     1009264                       # Total number of references to valid blocks.
system.l2.tags.sampled_refs                     73300                       # Sample count of references to valid blocks.
system.l2.tags.avg_refs                     13.768950                       # Average number of references to valid blocks.
system.l2.tags.warmup_cycle                     92000                       # Cycle when the warmup percentage was hit.
system.l2.tags.occ_blocks::.writebacks      15.951952                       # Average occupied blocks per requestor
system.l2.tags.occ_blocks::.cpu.inst        37.776636                       # Average occupied blocks per requestor
system.l2.tags.occ_blocks::.cpu.data     15785.276554                       # Average occupied blocks per requestor
system.l2.tags.occ_percent::.writebacks      0.000974                       # Average percentage of cache occupancy
system.l2.tags.occ_percent::.cpu.inst        0.002306                       # Average percentage of cache occupancy
system.l2.tags.occ_percent::.cpu.data        0.963457                       # Average percentage of cache occupancy
system.l2.tags.occ_percent::total            0.966736                       # Average percentage of cache occupancy
system.l2.tags.occ_task_id_blocks::1024         16384                       # Occupied blocks per task id
system.l2.tags.age_task_id_blocks_1024::2            2                       # Occupied blocks per task id
system.l2.tags.age_task_id_blocks_1024::3         1043                       # Occupied blocks per task id
system.l2.tags.age_task_id_blocks_1024::4        15339                       # Occupied blocks per task id
system.l2.tags.occ_task_id_percent::1024            1                       # Percentage of cache occupancy per task id
system.l2.tags.tag_accesses                  16221604                       # Number of tag accesses
system.l2.tags.data_accesses                 16221604                       # Number of data accesses
system.cpu_voltage_domain.voltage                   1                       # Voltage in Volts
system.mem_ctrls.pwrStateResidencyTicks::UNDEFINED  80004813000                       # Cumulative time (in ticks) in various power states
system.mem_ctrls.bytes_read::.cpu.inst          67328                       # Number of bytes read from this memory
system.mem_ctrls.bytes_read::.cpu.data       18689024                       # Number of bytes read from this memory
system.mem_ctrls.bytes_read::total           18756352                       # Number of bytes read from this memory
system.mem_ctrls.bytes_inst_read::.cpu.inst        67328                       # Number of instructions bytes read from this memory
system.mem_ctrls.bytes_inst_read::total         67328                       # Number of instructions bytes read from this memory
system.mem_ctrls.bytes_written::.writebacks     10285056                       # Number of bytes written to this memory
system.mem_ctrls.bytes_written::total        10285056                       # Number of bytes written to this memory
system.mem_ctrls.num_reads::.cpu.inst             263                       # Number of read requests responded to by this memory
system.mem_ctrls.num_reads::.cpu.data           73004                       # Number of read requests responded to by this memory
system.mem_ctrls.num_reads::total               73267                       # Number of read requests responded to by this memory
system.mem_ctrls.num_writes::.writebacks        40176                       # Number of write requests responded to by this memory
system.mem_ctrls.num_writes::total              40176                       # Number of write requests responded to by this memory
system.mem_ctrls.bw_read::.cpu.inst            841549                       # Total read bandwidth from this memory (bytes/s)
system.mem_ctrls.bw_read::.cpu.data         233598746                       # Total read bandwidth from this memory (bytes/s)
system.mem_ctrls.bw_read::total             234440295                       # Total read bandwidth from this memory (bytes/s)
system.mem_ctrls.bw_inst_read::.cpu.inst       841549                       # Instruction read bandwidth from this memory (bytes/s)
system.mem_ctrls.bw_inst_read::total           841549                       # Instruction read bandwidth from this memory (bytes/s)
system.mem_ctrls.bw_write::.writebacks      128555466                       # Write bandwidth from this memory (bytes/s)
system.mem_ctrls.bw_write::total            128555466                       # Write bandwidth from this memory (bytes/s)
system.mem_ctrls.bw_total::.writebacks      128555466                       # Total bandwidth to/from this memory (bytes/s)
system.mem_ctrls.bw_total::.cpu.inst           841549                       # Total bandwidth to/from this memory (bytes/s)
system.mem_ctrls.bw_total::.cpu.data        233598746                       # Total bandwidth to/from this memory (bytes/s)
system.mem_ctrls.bw_total::total            362995761                       # Total bandwidth to/from this memory (bytes/s)
system.mem_ctrls.avgPriority_.writebacks::samples    160704.00                       # Average QoS priority value for accepted requests
system.mem_ctrls.avgPriority_.cpu.inst::samples      1052.00                       # Average QoS priority value for accepted requests
system.mem_ctrls.avgPriority_.cpu.data::samples    292008.00                       # Average QoS priority value for accepted requests
system.mem_ctrls.priorityMinLatency      0.000000018750                       # per QoS priority minimum request to response latency (s)
system.mem_ctrls.priorityMaxLatency      0.008866174750                       # per QoS priority maximum request to response latency (s)
system.mem_ctrls.numReadWriteTurnArounds         9836                       # Number of turnarounds from READ to WRITE
system.mem_ctrls.numWriteReadTurnArounds         9836                       # Number of turnarounds from WRITE to READ
system.mem_ctrls.numStayReadState              406689                       # Number of times bus staying in READ state
system.mem_ctrls.numStayWriteState             151050                       # Number of times bus staying in WRITE state
system.mem_ctrls.readReqs                       73267                       # Number of read requests accepted
system.mem_ctrls.writeReqs                      40176                       # Number of write requests accepted
system.mem_ctrls.readBursts                    293068                       # Number of DRAM read bursts, including those serviced by the write queue
system.mem_ctrls.writeBursts                   160704                       # Number of DRAM write bursts, including those merged in the write queue
system.mem_ctrls.servicedByWrQ                      8                       # Number of DRAM read bursts serviced by the write queue
system.mem_ctrls.mergedWrBursts                     0                       # Number of DRAM write bursts merged with an existing one
system.mem_ctrls.neitherReadNorWriteReqs            0                       # Number of requests that are neither read nor write
system.mem_ctrls.perBankRdBursts::0             18480                       # Per bank write bursts
system.mem_ctrls.perBankRdBursts::1             18500                       # Per bank write bursts
system.mem_ctrls.perBankRdBursts::2             18516                       # Per bank write bursts
system.mem_ctrls.perBankRdBursts::3             18368                       # Per bank write bursts
system.mem_ctrls.perBankRdBursts::4             18240                       # Per bank write bursts
system.mem_ctrls.perBankRdBursts::5             18180                       # Per bank write bursts
system.mem_ctrls.perBankRdBursts::6             18160                       # Per bank write bursts
system.mem_ctrls.perBankRdBursts::7             18340                       # Per bank write bursts
system.mem_ctrls.perBankRdBursts::8             18368                       # Per bank write bursts
system.mem_ctrls.perBankRdBursts::9             18292                       # Per bank write bursts
system.mem_ctrls.perBankRdBursts::10            18324                       # Per bank write bursts
system.mem_ctrls.perBankRdBursts::11            18316                       # Per bank write bursts
system.mem_ctrls.perBankRdBursts::12            18320                       # Per bank write bursts
system.mem_ctrls.perBankRdBursts::13            18220                       # Per bank write bursts
system.mem_ctrls.perBankRdBursts::14            18208                       # Per bank write bursts
system.mem_ctrls.perBankRdBursts::15            18228                       # Per bank write bursts
system.mem_ctrls.perBankWrBursts::0             10112                       # Per bank write bursts
system.mem_ctrls.perBankWrBursts::1             10120                       # Per bank write bursts
system.mem_ctrls.perBankWrBursts::2             10176                       # Per bank write bursts
system.mem_ctrls.perBankWrBursts::3             10156                       # Per bank write bursts
system.mem_ctrls.perBankWrBursts::4             10044                       # Per bank write bursts
system.mem_ctrls.perBankWrBursts::5             10016                       # Per bank write bursts
system.mem_ctrls.perBankWrBursts::6             10032                       # Per bank write bursts
system.mem_ctrls.perBankWrBursts::7             10116                       # Per bank write bursts
system.mem_ctrls.perBankWrBursts::8             10028                       # Per bank write bursts
system.mem_ctrls.perBankWrBursts::9              9980                       # Per bank write bursts
system.mem_ctrls.perBankWrBursts::10             9981                       # Per bank write bursts
system.mem_ctrls.perBankWrBursts::11             9984                       # Per bank write bursts
system.mem_ctrls.perBankWrBursts::12             9932                       # Per bank write bursts
system.mem_ctrls.perBankWrBursts::13             9984                       # Per bank write bursts
system.mem_ctrls.perBankWrBursts::14             9984                       # Per bank write bursts
system.mem_ctrls.perBankWrBursts::15            10032                       # Per bank write bursts
system.mem_ctrls.avgRdQLen                       4.13                       # Average read queue length when enqueuing
system.mem_ctrls.avgWrQLen                      27.48                       # Average write queue length when enqueuing
system.mem_ctrls.totQLat                  11702470250                       # Total ticks spent queuing
system.mem_ctrls.totBusLat                 1465300000                       # Total ticks spent in databus transfers
system.mem_ctrls.totMemAccLat             17197345250                       # Total ticks spent from burst creation until serviced by the DRAM
system.mem_ctrls.avgQLat                     39931.99                       # Average queueing delay per DRAM burst
system.mem_ctrls.avgBusLat                    5000.00                       # Average bus latency per DRAM burst
system.mem_ctrls.avgMemAccLat                58681.99                       # Average memory access latency per DRAM burst
system.mem_ctrls.numRdRetry                         0                       # Number of times read queue was full causing retry
system.mem_ctrls.numWrRetry                         0                       # Number of times write queue was full causing retry
system.mem_ctrls.readRowHits                   263497                       # Number of row buffer hits during reads
system.mem_ctrls.writeRowHits                  144659                       # Number of row buffer hits during writes
system.mem_ctrls.readRowHitRate                 89.91                       # Row buffer hit rate for reads
system.mem_ctrls.writeRowHitRate                90.02                       # Row buffer hit rate for writes
system.mem_ctrls.readPktSize::0                     0                       # Read request sizes (log2)
system.mem_ctrls.readPktSize::1                     0                       # Read request sizes (log2)
system.mem_ctrls.readPktSize::2                     0                       # Read request sizes (log2)
system.mem_ctrls.readPktSize::3                     0                       # Read request sizes (log2)
system.mem_ctrls.readPktSize::4                     0                       # Read request sizes (log2)
system.mem_ctrls.readPktSize::5                     0                       # Read request sizes (log2)
system.mem_ctrls.readPktSize::6                293068                       # Read request sizes (log2)
system.mem_ctrls.writePktSize::0                    0                       # Write request sizes (log2)
system.mem_ctrls.writePktSize::1                    0                       # Write request sizes (log2)
system.mem_ctrls.writePktSize::2                    0                       # Write request sizes (log2)
system.mem_ctrls.writePktSize::3                    0                       # Write request sizes (log2)
system.mem_ctrls.writePktSize::4                    0                       # Write request sizes (log2)
system.mem_ctrls.writePktSize::5                    0                       # Write request sizes (log2)
system.mem_ctrls.writePktSize::6               160704                       # Write request sizes (log2)
system.mem_ctrls.rdQLenPdf::0                   57774                       # What read queue length does an incoming req see
system.mem_ctrls.rdQLenPdf::1                   57859                       # What read queue length does an incoming req see
system.mem_ctrls.rdQLenPdf::2                   57955                       # What read queue length does an incoming req see
system.mem_ctrls.rdQLenPdf::3                   59055                       # What read queue length does an incoming req see
system.mem_ctrls.rdQLenPdf::4                   15489                       # What read queue length does an incoming req see
system.mem_ctrls.rdQLenPdf::5                   15404                       # What read queue length does an incoming req see
system.mem_ctrls.rdQLenPdf::6                   15308                       # What read queue length does an incoming req see
system.mem_ctrls.rdQLenPdf::7                   14208                       # What read queue length does an incoming req see
system.mem_ctrls.rdQLenPdf::8                       2                       # What read queue length does an incoming req see
system.mem_ctrls.rdQLenPdf::9                       2                       # What read queue length does an incoming req see
system.mem_ctrls.rdQLenPdf::10                      2                       # What read queue length does an incoming req see
system.mem_ctrls.rdQLenPdf::11                      2                       # What read queue length does an incoming req see
system.mem_ctrls.rdQLenPdf::12                      0                       # What read queue length does an incoming req see
system.mem_ctrls.rdQLenPdf::13                      0                       # What read queue length does an incoming req see
system.mem_ctrls.rdQLenPdf::14                      0                       # What read queue length does an incoming req see
system.mem_ctrls.rdQLenPdf::15                      0                       # What read queue length does an incoming req see
system.mem_ctrls.rdQLenPdf::16                      0                       # What read queue length does an incoming req see
system.mem_ctrls.rdQLenPdf::17                      0                       # What read queue length does an incoming req see
system.mem_ctrls.rdQLenPdf::18                      0                       # What read queue length does an incoming req see
system.mem_ctrls.rdQLenPdf::19                      0                       # What read queue length does an incoming req see
system.mem_ctrls.rdQLenPdf::20                      0                       # What read queue length does an incoming req see
system.mem_ctrls.rdQLenPdf::21                      0                       # What read queue length does an incoming req see
system.mem_ctrls.rdQLenPdf::22                      0                       # What read queue length does an incoming req see
system.mem_ctrls.rdQLenPdf::23                      0                       # What read queue length does an incoming req see
system.mem_ctrls.rdQLenPdf::24                      0                       # What read queue length does an incoming req see
system.mem_ctrls.rdQLenPdf::25                      0                       # What read queue length does an incoming req see
system.mem_ctrls.rdQLenPdf::26                      0                       # What read queue length does an incoming req see
system.mem_ctrls.rdQLenPdf::27                      0                       # What read queue length does an incoming req see
system.mem_ctrls.rdQLenPdf::28                      0                       # What read queue length does an incoming req see
system.mem_ctrls.rdQLenPdf::29                      0                       # What read queue length does an incoming req see
system.mem_ctrls.rdQLenPdf::30                      0                       # What read queue length does an incoming req see
system.mem_ctrls.rdQLenPdf::31                      0                       # What read queue length does an incoming req see
system.mem_ctrls.wrQLenPdf::0                       1                       # What write queue length does an incoming req see
system.mem_ctrls.wrQLenPdf::1                       1                       # What write queue length does an incoming req see
system.mem_ctrls.wrQLenPdf::2                       1                       # What write queue length does an incoming req see
system.mem_ctrls.wrQLenPdf::3                       1                       # What write queue length does an incoming req see
system.mem_ctrls.wrQLenPdf::4                       1                       # What write queue length does an incoming req see
system.mem_ctrls.wrQLenPdf::5                       1                       # What write queue length does an incoming req see
system.mem_ctrls.wrQLenPdf::6                       1                       # What write queue length does an incoming req see
system.mem_ctrls.wrQLenPdf::7                       1                       # What write queue length does an incoming req see
system.mem_ctrls.wrQLenPdf::8                       1                       # What write queue length does an incoming req see
system.mem_ctrls.wrQLenPdf::9                       1                       # What write queue length does an incoming req see
system.mem_ctrls.wrQLenPdf::10                      1                       # What write queue length does an incoming req see
system.mem_ctrls.wrQLenPdf::11                      1                       # What write queue length does an incoming req see
system.mem_ctrls.wrQLenPdf::12                      1                       # What write queue length does an incoming req see
system.mem_ctrls.wrQLenPdf::13                      1                       # What write queue length does an incoming req see
system.mem_ctrls.wrQLenPdf::14                      1                       # What write queue length does an incoming req see
system.mem_ctrls.wrQLenPdf::15                    725                       # What write queue length does an incoming req see
system.mem_ctrls.wrQLenPdf::16                    735                       # What write queue length does an incoming req see
system.mem_ctrls.wrQLenPdf::17                   1682                       # What write queue length does an incoming req see
system.mem_ctrls.wrQLenPdf::18                   2087                       # What write queue length does an incoming req see
system.mem_ctrls.wrQLenPdf::19                   4317                       # What write queue length does an incoming req see
system.mem_ctrls.wrQLenPdf::20                   6022                       # What write queue length does an incoming req see
system.mem_ctrls.wrQLenPdf::21                   6530                       # What write queue length does an incoming req see
system.mem_ctrls.wrQLenPdf::22                   7974                       # What write queue length does an incoming req see
system.mem_ctrls.wrQLenPdf::23                   9244                       # What write queue length does an incoming req see
system.mem_ctrls.wrQLenPdf::24                  10749                       # What write queue length does an incoming req see
system.mem_ctrls.wrQLenPdf::25                  10876                       # What write queue length does an incoming req see
system.mem_ctrls.wrQLenPdf::26                  11201                       # What write queue length does an incoming req see
system.mem_ctrls.wrQLenPdf::27                  11940                       # What write queue length does an incoming req see
system.mem_ctrls.wrQLenPdf::28                  11957                       # What write queue length does an incoming req see
system.mem_ctrls.wrQLenPdf::29                  12340                       # What write queue length does an incoming req see
system.mem_ctrls.wrQLenPdf::30                  11995                       # What write queue length does an incoming req see
system.mem_ctrls.wrQLenPdf::31                  11073                       # What write queue length does an incoming req see
system.mem_ctrls.wrQLenPdf::32                  10664                       # What write queue length does an incoming req see
system.mem_ctrls.wrQLenPdf::33                   8709                       # What write queue length does an incoming req see
system.mem_ctrls.wrQLenPdf::34                   6889                       # What write queue length does an incoming req see
system.mem_ctrls.wrQLenPdf::35                   2861                       # What write queue length does an incoming req see
system.mem_ctrls.wrQLenPdf::36                     45                       # What write queue length does an incoming req see
system.mem_ctrls.wrQLenPdf::37                     35                       # What write queue length does an incoming req see
system.mem_ctrls.wrQLenPdf::38                     26                       # What write queue length does an incoming req see
system.mem_ctrls.wrQLenPdf::39                     13                       # What write queue length does an incoming req see
system.mem_ctrls.wrQLenPdf::40                      0                       # What write queue length does an incoming req see
system.mem_ctrls.wrQLenPdf::41                      0                       # What write queue length does an incoming req see
system.mem_ctrls.wrQLenPdf::42                      0                       # What write queue length does an incoming req see
system.mem_ctrls.wrQLenPdf::43                      0                       # What write queue length does an incoming req see
system.mem_ctrls.wrQLenPdf::44                      0                       # What write queue length does an incoming req see
system.mem_ctrls.wrQLenPdf::45                      0                       # What write queue length does an incoming req see
system.mem_ctrls.wrQLenPdf::46                      0                       # What write queue length does an incoming req see
system.mem_ctrls.wrQLenPdf::47                      0                       # What write queue length does an incoming req see
system.mem_ctrls.wrQLenPdf::48                      0                       # What write queue length does an incoming req see
system.mem_ctrls.wrQLenPdf::49                      0                       # What write queue length does an incoming req see
system.mem_ctrls.wrQLenPdf::50                      0                       # What write queue length does an incoming req see
system.mem_ctrls.wrQLenPdf::51                      0                       # What write queue length does an incoming req see
system.mem_ctrls.wrQLenPdf::52                      0                       # What write queue length does an incoming req see
system.mem_ctrls.wrQLenPdf::53                      0                       # What write queue length does an incoming req see
system.mem_ctrls.wrQLenPdf::54                      0                       # What write queue length does an incoming req see
system.mem_ctrls.wrQLenPdf::55                      0                       # What write queue length does an incoming req see
system.mem_ctrls.wrQLenPdf::56                      0                       # What write queue length does an incoming req see
system.mem_ctrls.wrQLenPdf::57                      0                       # What write queue length does an incoming req see
system.mem_ctrls.wrQLenPdf::58                      0                       # What write queue length does an incoming req see
system.mem_ctrls.wrQLenPdf::59                      0                       # What write queue length does an incoming req see
system.mem_ctrls.wrQLenPdf::60                      0                       # What write queue length does an incoming req see
system.mem_ctrls.wrQLenPdf::61                      0                       # What write queue length does an incoming req see
system.mem_ctrls.wrQLenPdf::62                      0                       # What write queue length does an incoming req see
system.mem_ctrls.wrQLenPdf::63                      0                       # What write queue length does an incoming req see
system.mem_ctrls.bytesPerActivate::samples        45581                       # Bytes accessed per row activation
system.mem_ctrls.bytesPerActivate::mean    637.089314                       # Bytes accessed per row activation
system.mem_ctrls.bytesPerActivate::gmean   528.253024                       # Bytes accessed per row activation
system.mem_ctrls.bytesPerActivate::stdev   341.508489                       # Bytes accessed per row activation
system.mem_ctrls.bytesPerActivate::0-127          643      1.41%      1.41% # Bytes accessed per row activation
system.mem_ctrls.bytesPerActivate::128-255          772      1.69%      3.10% # Bytes accessed per row activation
system.mem_ctrls.bytesPerActivate::256-383        15086     33.10%     36.20% # Bytes accessed per row activation
system.mem_ctrls.bytesPerActivate::384-511          992      2.18%     38.38% # Bytes accessed per row activation
system.mem_ctrls.bytesPerActivate::512-639         5515     12.10%     50.48% # Bytes accessed per row activation
system.mem_ctrls.bytesPerActivate::640-767         1131      2.48%     52.96% # Bytes accessed per row activation
system.mem_ctrls.bytesPerActivate::768-895         4032      8.85%     61.80% # Bytes accessed per row activation
system.mem_ctrls.bytesPerActivate::896-1023          484      1.06%     62.87% # Bytes accessed per row activation
system.mem_ctrls.bytesPerActivate::1024-1151        16926     37.13%    100.00% # Bytes accessed per row activation
system.mem_ctrls.bytesPerActivate::total        45581                       # Bytes accessed per row activation
system.mem_ctrls.rdPerTurnAround::samples         9836                       # Reads before turning the bus around for writes
system.mem_ctrls.rdPerTurnAround::mean      29.783652                       # Reads before turning the bus around for writes
system.mem_ctrls.rdPerTurnAround::gmean     21.276813                       # Reads before turning the bus around for writes
system.mem_ctrls.rdPerTurnAround::stdev    193.386749                       # Reads before turning the bus around for writes
system.mem_ctrls.rdPerTurnAround::0-1023         9829     99.93%     99.93% # Reads before turning the bus around for writes
system.mem_ctrls.rdPerTurnAround::1024-2047            3      0.03%     99.96% # Reads before turning the bus around for writes
system.mem_ctrls.rdPerTurnAround::3072-4095            2      0.02%     99.98% # Reads before turning the bus around for writes
system.mem_ctrls.rdPerTurnAround::4096-5119            1      0.01%     99.99% # Reads before turning the bus around for writes
system.mem_ctrls.rdPerTurnAround::16384-17407            1      0.01%    100.00% # Reads before turning the bus around for writes
system.mem_ctrls.rdPerTurnAround::total          9836                       # Reads before turning the bus around for writes
system.mem_ctrls.wrPerTurnAround::samples         9836                       # Writes before turning the bus around for reads
system.mem_ctrls.wrPerTurnAround::mean      16.335604                       # Writes before turning the bus around for reads
system.mem_ctrls.wrPerTurnAround::gmean     16.301460                       # Writes before turning the bus around for reads
system.mem_ctrls.wrPerTurnAround::stdev      1.128958                       # Writes before turning the bus around for reads
[...]
system.cpu.icache.ReadReq_avg_miss_latency::total 91603.448276                       # average ReadReq miss latency
system.cpu.icache.ReadReq_mshr_misses::.cpu.inst          290                       # number of ReadReq MSHR misses
system.cpu.icache.ReadReq_mshr_misses::total          290                       # number of ReadReq MSHR misses
system.cpu.icache.ReadReq_mshr_miss_latency::.cpu.inst     26275000                       # number of ReadReq MSHR miss cycles
system.cpu.icache.ReadReq_mshr_miss_latency::total     26275000                       # number of ReadReq MSHR miss cycles
system.cpu.icache.ReadReq_mshr_miss_rate::.cpu.inst     0.000041                       # mshr miss rate for ReadReq accesses
system.cpu.icache.ReadReq_mshr_miss_rate::total     0.000041                       # mshr miss rate for ReadReq accesses
system.cpu.icache.ReadReq_avg_mshr_miss_latency::.cpu.inst 90603.448276                       # average ReadReq mshr miss latency
system.cpu.icache.ReadReq_avg_mshr_miss_latency::total 90603.448276                       # average ReadReq mshr miss latency
system.cpu.icache.tags.pwrStateResidencyTicks::UNDEFINED  80004813000                       # Cumulative time (in ticks) in various power states
system.cpu.icache.tags.tagsinuse           192.702521                       # Cycle average of tags in use
system.cpu.icache.tags.total_refs             7019390                       # Total number of references to valid blocks.
system.cpu.icache.tags.sampled_refs               290                       # Sample count of references to valid blocks.
system.cpu.icache.tags.avg_refs          24204.793103                       # Average number of references to valid blocks.
system.cpu.icache.tags.warmup_cycle            102500                       # Cycle when the warmup percentage was hit.
system.cpu.icache.tags.occ_blocks::.cpu.inst   192.702521                       # Average occupied blocks per requestor
system.cpu.icache.tags.occ_percent::.cpu.inst     0.752744                       # Average percentage of cache occupancy
system.cpu.icache.tags.occ_percent::total     0.752744                       # Average percentage of cache occupancy
system.cpu.icache.tags.occ_task_id_blocks::1024          217                       # Occupied blocks per task id
system.cpu.icache.tags.age_task_id_blocks_1024::3           24                       # Occupied blocks per task id
system.cpu.icache.tags.age_task_id_blocks_1024::4          193                       # Occupied blocks per task id
system.cpu.icache.tags.occ_task_id_percent::1024     0.847656                       # Percentage of cache occupancy per task id
system.cpu.icache.tags.tag_accesses          28077850                       # Number of tag accesses
system.cpu.icache.tags.data_accesses         28077850                       # Number of data accesses
system.cpu.dtb.walker.pwrStateResidencyTicks::UNDEFINED  80004813000                       # Cumulative time (in ticks) in various power states
system.cpu.dtb.stage2_mmu.stage2_tlb.walker.pwrStateResidencyTicks::UNDEFINED  80004813000                       # Cumulative time (in ticks) in various power states
system.cpu.dcache.pwrStateResidencyTicks::UNDEFINED  80004813000                       # Cumulative time (in ticks) in various power states
system.cpu.dcache.demand_hits::.cpu.data     51526672                       # number of demand (read+write) hits
system.cpu.dcache.demand_hits::total         51526672                       # number of demand (read+write) hits
system.cpu.dcache.overall_hits::.cpu.data     51528303                       # number of overall hits
system.cpu.dcache.overall_hits::total        51528303                       # number of overall hits
system.cpu.dcache.demand_misses::.cpu.data       520946                       # number of demand (read+write) misses
system.cpu.dcache.demand_misses::total         520946                       # number of demand (read+write) misses
system.cpu.dcache.overall_misses::.cpu.data       527736                       # number of overall misses
system.cpu.dcache.overall_misses::total        527736                       # number of overall misses
system.cpu.dcache.demand_miss_latency::.cpu.data  16050964500                       # number of demand (read+write) miss cycles
system.cpu.dcache.demand_miss_latency::total  16050964500                       # number of demand (read+write) miss cycles
system.cpu.dcache.overall_miss_latency::.cpu.data  16050964500                       # number of overall miss cycles
system.cpu.dcache.overall_miss_latency::total  16050964500                       # number of overall miss cycles
system.cpu.dcache.demand_accesses::.cpu.data     52047618                       # number of demand (read+write) accesses
system.cpu.dcache.demand_accesses::total     52047618                       # number of demand (read+write) accesses
system.cpu.dcache.overall_accesses::.cpu.data     52056039                       # number of overall (read+write) accesses
system.cpu.dcache.overall_accesses::total     52056039                       # number of overall (read+write) accesses
system.cpu.dcache.demand_miss_rate::.cpu.data     0.010009                       # miss rate for demand accesses
system.cpu.dcache.demand_miss_rate::total     0.010009                       # miss rate for demand accesses
system.cpu.dcache.overall_miss_rate::.cpu.data     0.010138                       # miss rate for overall accesses
system.cpu.dcache.overall_miss_rate::total     0.010138                       # miss rate for overall accesses
system.cpu.dcache.demand_avg_miss_latency::.cpu.data 30811.186764                       # average overall miss latency
system.cpu.dcache.demand_avg_miss_latency::total 30811.186764                       # average overall miss latency
system.cpu.dcache.overall_avg_miss_latency::.cpu.data 30414.761358                       # average overall miss latency
system.cpu.dcache.overall_avg_miss_latency::total 30414.761358                       # average overall miss latency
system.cpu.dcache.blocked_cycles::no_mshrs            0                       # number of cycles access was blocked
system.cpu.dcache.blocked_cycles::no_targets            0                       # number of cycles access was blocked
system.cpu.dcache.blocked::no_mshrs                 0                       # number of cycles access was blocked
system.cpu.dcache.blocked::no_targets               0                       # number of cycles access was blocked
system.cpu.dcache.avg_blocked_cycles::no_mshrs          nan                       # average number of cycles each access was blocked
system.cpu.dcache.avg_blocked_cycles::no_targets          nan                       # average number of cycles each access was blocked
system.cpu.dcache.writebacks::.writebacks       483525                       # number of writebacks
system.cpu.dcache.writebacks::total            483525                       # number of writebacks
system.cpu.dcache.demand_mshr_hits::.cpu.data        18156                       # number of demand (read+write) MSHR hits
system.cpu.dcache.demand_mshr_hits::total        18156                       # number of demand (read+write) MSHR hits
system.cpu.dcache.overall_mshr_hits::.cpu.data        18156                       # number of overall MSHR hits
system.cpu.dcache.overall_mshr_hits::total        18156                       # number of overall MSHR hits
system.cpu.dcache.demand_mshr_misses::.cpu.data       502790                       # number of demand (read+write) MSHR misses
system.cpu.dcache.demand_mshr_misses::total       502790                       # number of demand (read+write) MSHR misses
system.cpu.dcache.overall_mshr_misses::.cpu.data       504770                       # number of overall MSHR misses
system.cpu.dcache.overall_mshr_misses::total       504770                       # number of overall MSHR misses
system.cpu.dcache.demand_mshr_miss_latency::.cpu.data  13966852500                       # number of demand (read+write) MSHR miss cycles
system.cpu.dcache.demand_mshr_miss_latency::total  13966852500                       # number of demand (read+write) MSHR miss cycles
system.cpu.dcache.overall_mshr_miss_latency::.cpu.data  14129900500                       # number of overall MSHR miss cycles
system.cpu.dcache.overall_mshr_miss_latency::total  14129900500                       # number of overall MSHR miss cycles
system.cpu.dcache.demand_mshr_miss_rate::.cpu.data     0.009660                       # mshr miss rate for demand accesses
system.cpu.dcache.demand_mshr_miss_rate::total     0.009660                       # mshr miss rate for demand accesses
system.cpu.dcache.overall_mshr_miss_rate::.cpu.data     0.009697                       # mshr miss rate for overall accesses
system.cpu.dcache.overall_mshr_miss_rate::total     0.009697                       # mshr miss rate for overall accesses
system.cpu.dcache.demand_avg_mshr_miss_latency::.cpu.data 27778.699855                       # average overall mshr miss latency
system.cpu.dcache.demand_avg_mshr_miss_latency::total 27778.699855                       # average overall mshr miss latency
system.cpu.dcache.overall_avg_mshr_miss_latency::.cpu.data 27992.750163                       # average overall mshr miss latency
system.cpu.dcache.overall_avg_mshr_miss_latency::total 27992.750163                       # average overall mshr miss latency
system.cpu.dcache.replacements                 504257                       # number of replacements
system.cpu.dcache.ReadReq_hits::.cpu.data     40836221                       # number of ReadReq hits
system.cpu.dcache.ReadReq_hits::total        40836221                       # number of ReadReq hits
system.cpu.dcache.ReadReq_misses::.cpu.data       261311                       # number of ReadReq misses
system.cpu.dcache.ReadReq_misses::total        261311                       # number of ReadReq misses
system.cpu.dcache.ReadReq_miss_latency::.cpu.data   5095347500                       # number of ReadReq miss cycles
system.cpu.dcache.ReadReq_miss_latency::total   5095347500                       # number of ReadReq miss cycles
system.cpu.dcache.ReadReq_accesses::.cpu.data     41097532                       # number of ReadReq accesses(hits+misses)
system.cpu.dcache.ReadReq_accesses::total     41097532                       # number of ReadReq accesses(hits+misses)
system.cpu.dcache.ReadReq_miss_rate::.cpu.data     0.006358                       # miss rate for ReadReq accesses
system.cpu.dcache.ReadReq_miss_rate::total     0.006358                       # miss rate for ReadReq accesses
system.cpu.dcache.ReadReq_avg_miss_latency::.cpu.data 19499.169572                       # average ReadReq miss latency
system.cpu.dcache.ReadReq_avg_miss_latency::total 19499.169572                       # average ReadReq miss latency
system.cpu.dcache.ReadReq_mshr_hits::.cpu.data         1743                       # number of ReadReq MSHR hits
system.cpu.dcache.ReadReq_mshr_hits::total         1743                       # number of ReadReq MSHR hits
system.cpu.dcache.ReadReq_mshr_misses::.cpu.data       259568                       # number of ReadReq MSHR misses
system.cpu.dcache.ReadReq_mshr_misses::total       259568                       # number of ReadReq MSHR misses
system.cpu.dcache.ReadReq_mshr_miss_latency::.cpu.data   4696561000                       # number of ReadReq MSHR miss cycles
system.cpu.dcache.ReadReq_mshr_miss_latency::total   4696561000                       # number of ReadReq MSHR miss cycles
system.cpu.dcache.ReadReq_mshr_miss_rate::.cpu.data     0.006316                       # mshr miss rate for ReadReq accesses
system.cpu.dcache.ReadReq_mshr_miss_rate::total     0.006316                       # mshr miss rate for ReadReq accesses
system.cpu.dcache.ReadReq_avg_mshr_miss_latency::.cpu.data 18093.759631                       # average ReadReq mshr miss latency
system.cpu.dcache.ReadReq_avg_mshr_miss_latency::total 18093.759631                       # average ReadReq mshr miss latency
system.cpu.dcache.WriteReq_hits::.cpu.data     10690451                       # number of WriteReq hits
system.cpu.dcache.WriteReq_hits::total       10690451                       # number of WriteReq hits
system.cpu.dcache.WriteReq_misses::.cpu.data       259635                       # number of WriteReq misses
system.cpu.dcache.WriteReq_misses::total       259635                       # number of WriteReq misses
system.cpu.dcache.WriteReq_miss_latency::.cpu.data  10955617000                       # number of WriteReq miss cycles
system.cpu.dcache.WriteReq_miss_latency::total  10955617000                       # number of WriteReq miss cycles
system.cpu.dcache.WriteReq_accesses::.cpu.data     10950086                       # number of WriteReq accesses(hits+misses)
system.cpu.dcache.WriteReq_accesses::total     10950086                       # number of WriteReq accesses(hits+misses)
system.cpu.dcache.WriteReq_miss_rate::.cpu.data     0.023711                       # miss rate for WriteReq accesses
system.cpu.dcache.WriteReq_miss_rate::total     0.023711                       # miss rate for WriteReq accesses
system.cpu.dcache.WriteReq_avg_miss_latency::.cpu.data 42196.225470                       # average WriteReq miss latency
system.cpu.dcache.WriteReq_avg_miss_latency::total 42196.225470                       # average WriteReq miss latency
system.cpu.dcache.WriteReq_mshr_hits::.cpu.data        16413                       # number of WriteReq MSHR hits
system.cpu.dcache.WriteReq_mshr_hits::total        16413                       # number of WriteReq MSHR hits
system.cpu.dcache.WriteReq_mshr_misses::.cpu.data       243222                       # number of WriteReq MSHR misses
system.cpu.dcache.WriteReq_mshr_misses::total       243222                       # number of WriteReq MSHR misses
system.cpu.dcache.WriteReq_mshr_miss_latency::.cpu.data   9270291500                       # number of WriteReq MSHR miss cycles
system.cpu.dcache.WriteReq_mshr_miss_latency::total   9270291500                       # number of WriteReq MSHR miss cycles
system.cpu.dcache.WriteReq_mshr_miss_rate::.cpu.data     0.022212                       # mshr miss rate for WriteReq accesses
system.cpu.dcache.WriteReq_mshr_miss_rate::total     0.022212                       # mshr miss rate for WriteReq accesses
system.cpu.dcache.WriteReq_avg_mshr_miss_latency::.cpu.data 38114.527058                       # average WriteReq mshr miss latency
system.cpu.dcache.WriteReq_avg_mshr_miss_latency::total 38114.527058                       # average WriteReq mshr miss latency
system.cpu.dcache.SoftPFReq_hits::.cpu.data         1631                       # number of SoftPFReq hits
system.cpu.dcache.SoftPFReq_hits::total          1631                       # number of SoftPFReq hits
system.cpu.dcache.SoftPFReq_misses::.cpu.data         6790                       # number of SoftPFReq misses
system.cpu.dcache.SoftPFReq_misses::total         6790                       # number of SoftPFReq misses
system.cpu.dcache.SoftPFReq_accesses::.cpu.data         8421                       # number of SoftPFReq accesses(hits+misses)
system.cpu.dcache.SoftPFReq_accesses::total         8421                       # number of SoftPFReq accesses(hits+misses)
system.cpu.dcache.SoftPFReq_miss_rate::.cpu.data     0.806318                       # miss rate for SoftPFReq accesses
system.cpu.dcache.SoftPFReq_miss_rate::total     0.806318                       # miss rate for SoftPFReq accesses
system.cpu.dcache.SoftPFReq_mshr_misses::.cpu.data         1980                       # number of SoftPFReq MSHR misses
system.cpu.dcache.SoftPFReq_mshr_misses::total         1980                       # number of SoftPFReq MSHR misses
system.cpu.dcache.SoftPFReq_mshr_miss_latency::.cpu.data    163048000                       # number of SoftPFReq MSHR miss cycles
system.cpu.dcache.SoftPFReq_mshr_miss_latency::total    163048000                       # number of SoftPFReq MSHR miss cycles
system.cpu.dcache.SoftPFReq_mshr_miss_rate::.cpu.data     0.235126                       # mshr miss rate for SoftPFReq accesses
system.cpu.dcache.SoftPFReq_mshr_miss_rate::total     0.235126                       # mshr miss rate for SoftPFReq accesses
system.cpu.dcache.SoftPFReq_avg_mshr_miss_latency::.cpu.data 82347.474747                       # average SoftPFReq mshr miss latency
system.cpu.dcache.SoftPFReq_avg_mshr_miss_latency::total 82347.474747                       # average SoftPFReq mshr miss latency
system.cpu.dcache.LoadLockedReq_hits::.cpu.data           38                       # number of LoadLockedReq hits
system.cpu.dcache.LoadLockedReq_hits::total           38                       # number of LoadLockedReq hits
system.cpu.dcache.LoadLockedReq_accesses::.cpu.data           38                       # number of LoadLockedReq accesses(hits+misses)
system.cpu.dcache.LoadLockedReq_accesses::total           38                       # number of LoadLockedReq accesses(hits+misses)
system.cpu.dcache.StoreCondReq_hits::.cpu.data           38                       # number of StoreCondReq hits
system.cpu.dcache.StoreCondReq_hits::total           38                       # number of StoreCondReq hits
system.cpu.dcache.StoreCondReq_accesses::.cpu.data           38                       # number of StoreCondReq accesses(hits+misses)
system.cpu.dcache.StoreCondReq_accesses::total           38                       # number of StoreCondReq accesses(hits+misses)
system.cpu.dcache.tags.pwrStateResidencyTicks::UNDEFINED  80004813000                       # Cumulative time (in ticks) in various power states
system.cpu.dcache.tags.tagsinuse           501.714332                       # Cycle average of tags in use
system.cpu.dcache.tags.total_refs            52033148                       # Total number of references to valid blocks.
system.cpu.dcache.tags.sampled_refs            504769                       # Sample count of references to valid blocks.
system.cpu.dcache.tags.avg_refs            103.083089                       # Average number of references to valid blocks.
system.cpu.dcache.tags.warmup_cycle            210500                       # Cycle when the warmup percentage was hit.
system.cpu.dcache.tags.occ_blocks::.cpu.data   501.714332                       # Average occupied blocks per requestor
system.cpu.dcache.tags.occ_percent::.cpu.data     0.979911                       # Average percentage of cache occupancy
system.cpu.dcache.tags.occ_percent::total     0.979911                       # Average percentage of cache occupancy
system.cpu.dcache.tags.occ_task_id_blocks::1024          512                       # Occupied blocks per task id
system.cpu.dcache.tags.age_task_id_blocks_1024::0          273                       # Occupied blocks per task id
system.cpu.dcache.tags.age_task_id_blocks_1024::1          222                       # Occupied blocks per task id
system.cpu.dcache.tags.age_task_id_blocks_1024::2           16                       # Occupied blocks per task id
system.cpu.dcache.tags.age_task_id_blocks_1024::4            1                       # Occupied blocks per task id
system.cpu.dcache.tags.occ_task_id_percent::1024            1                       # Percentage of cache occupancy per task id
system.cpu.dcache.tags.tag_accesses         208729229                       # Number of tag accesses
system.cpu.dcache.tags.data_accesses        208729229                       # Number of data accesses
system.cpu.itb.walker.pwrStateResidencyTicks::UNDEFINED  80004813000                       # Cumulative time (in ticks) in various power states
system.cpu.itb.stage2_mmu.stage2_tlb.walker.pwrStateResidencyTicks::UNDEFINED  80004813000                       # Cumulative time (in ticks) in various power states

---------- End Simulation Statistics   ----------
