
---------- Begin Simulation Statistics ----------
final_tick                                70115797500                       # Number of ticks from beginning of simulation (restored from checkpoints and never reset)
host_inst_rate                                 127096                       # Simulator instruction rate (inst/s)
host_mem_usage                                 690584                       # Number of bytes of host memory used
host_op_rate                                   139084                       # Simulator op (including micro ops) rate (op/s)
host_seconds                                   786.80                       # Real time elapsed on the host
host_tick_rate                               89114581                       # Simulator tick rate (ticks/s)
sim_freq                                 1000000000000                       # Frequency of simulated ticks
sim_insts                                   100000001                       # Number of instructions simulated
sim_ops                                     109431937                       # Number of ops (including micro ops) simulated
sim_seconds                                  0.070116                       # Number of seconds simulated
sim_ticks                                 70115797500                       # Number of ticks simulated
system.cpu.branchPred.BTBCorrect                    0                       # Number of correct BTB predictions (this stat may not work properly.
system.cpu.branchPred.BTBHitPct             88.088241                       # BTB Hit Percentage
system.cpu.branchPred.BTBHits                 8691465                       # Number of BTB hits
system.cpu.branchPred.BTBLookups              9866771                       # Number of BTB lookups
system.cpu.branchPred.RASInCorrect                345                       # Number of incorrect RAS predictions.
system.cpu.branchPred.condIncorrect            142503                       # Number of conditional branches incorrect
system.cpu.branchPred.condPredicted          16342358                       # Number of conditional branches predicted
system.cpu.branchPred.indirectHits             300025                       # Number of indirect target hits.
system.cpu.branchPred.indirectLookups          434103                       # Number of indirect predictor lookups.
system.cpu.branchPred.indirectMisses           134078                       # Number of indirect misses.
system.cpu.branchPred.lookups                20405129                       # Number of BP lookups
system.cpu.branchPred.usedRAS                 1050607                       # Number of times the RAS was used to get a target.
system.cpu.branchPredindirectMispredicted         1038                       # Number of mispredicted indirect branches.
system.cpu.committedInsts                   100000001                       # Number of instructions committed
system.cpu.committedOps                     109431937                       # Number of ops (including micro ops) committed
system.cpu.cpi                               1.402316                       # CPI: cycles per instruction
system.cpu.discardedOps                        690741                       # Number of ops (including micro ops) which were discarded before commit
system.cpu.dtb.accesses                             0                       # DTB accesses
system.cpu.dtb.align_faults                         0                       # Number of TLB faults due to alignment restrictions
system.cpu.dtb.domain_faults                        0                       # Number of TLB faults due to domain restrictions
system.cpu.dtb.flush_entries                        0                       # Number of entries that have been flushed from TLB
system.cpu.dtb.flush_tlb                            0                       # Number of times complete TLB was flushed
system.cpu.dtb.flush_tlb_asid                       0                       # Number of times TLB was flushed by ASID
system.cpu.dtb.flush_tlb_mva                        0                       # Number of times TLB was flushed by MVA
system.cpu.dtb.flush_tlb_mva_asid                   0                       # Number of times TLB was flushed by MVA & ASID
system.cpu.dtb.hits                                 0                       # DTB hits
system.cpu.dtb.inst_accesses                        0                       # ITB inst accesses
system.cpu.dtb.inst_hits                            0                       # ITB inst hits
system.cpu.dtb.inst_misses                          0                       # ITB inst misses
system.cpu.dtb.misses                               0                       # DTB misses
system.cpu.dtb.perms_faults                         0                       # Number of TLB faults due to permissions restrictions
system.cpu.dtb.prefetch_faults                      0                       # Number of TLB faults due to prefetch
system.cpu.dtb.read_accesses                        0                       # DTB read accesses
system.cpu.dtb.read_hits                            0                       # DTB read hits
system.cpu.dtb.read_misses                          0                       # DTB read misses
system.cpu.dtb.stage2_mmu.stage2_tlb.accesses            0                       # DTB accesses
system.cpu.dtb.stage2_mmu.stage2_tlb.align_faults            0                       # Number of TLB faults due to alignment restrictions
system.cpu.dtb.stage2_mmu.stage2_tlb.domain_faults            0                       # Number of TLB faults due to domain restrictions
system.cpu.dtb.stage2_mmu.stage2_tlb.flush_entries            0                       # Number of entries that have been flushed from TLB
system.cpu.dtb.stage2_mmu.stage2_tlb.flush_tlb            0                       # Number of times complete TLB was flushed
system.cpu.dtb.stage2_mmu.stage2_tlb.flush_tlb_asid            0                       # Number of times TLB was flushed by ASID
system.cpu.dtb.stage2_mmu.stage2_tlb.flush_tlb_mva            0                       # Number of times TLB was flushed by MVA
system.cpu.dtb.stage2_mmu.stage2_tlb.flush_tlb_mva_asid            0                       # Number of times TLB was flushed by MVA & ASID
system.cpu.dtb.stage2_mmu.stage2_tlb.hits            0                       # DTB hits
system.cpu.dtb.stage2_mmu.stage2_tlb.inst_accesses            0                       # ITB inst accesses
system.cpu.dtb.stage2_mmu.stage2_tlb.inst_hits            0                       # ITB inst hits
system.cpu.dtb.stage2_mmu.stage2_tlb.inst_misses            0                       # ITB inst misses
system.cpu.dtb.stage2_mmu.stage2_tlb.misses            0                       # DTB misses
system.cpu.dtb.stage2_mmu.stage2_tlb.perms_faults            0                       # Number of TLB faults due to permissions restrictions
system.cpu.dtb.stage2_mmu.stage2_tlb.prefetch_faults            0                       # Number of TLB faults due to prefetch
system.cpu.dtb.stage2_mmu.stage2_tlb.read_accesses            0                       # DTB read accesses
system.cpu.dtb.stage2_mmu.stage2_tlb.read_hits            0                       # DTB read hits
system.cpu.dtb.stage2_mmu.stage2_tlb.read_misses            0                       # DTB read misses
system.cpu.dtb.stage2_mmu.stage2_tlb.walker.walkRequestOrigin_Requested::Data            0                       # Table walker requests started/completed, data/inst
system.cpu.dtb.stage2_mmu.stage2_tlb.walker.walkRequestOrigin_Requested::Inst            0                       # Table walker requests started/completed, data/inst
system.cpu.dtb.stage2_mmu.stage2_tlb.walker.walkRequestOrigin_Requested::total            0                       # Table walker requests started/completed, data/inst
system.cpu.dtb.stage2_mmu.stage2_tlb.walker.walkRequestOrigin_Completed::Data            0                       # Table walker requests started/completed, data/inst
system.cpu.dtb.stage2_mmu.stage2_tlb.walker.walkRequestOrigin_Completed::Inst            0                       # Table walker requests started/completed, data/inst
system.cpu.dtb.stage2_mmu.stage2_tlb.walker.walkRequestOrigin_Completed::total            0                       # Table walker requests started/completed, data/inst
system.cpu.dtb.stage2_mmu.stage2_tlb.walker.walkRequestOrigin::total            0                       # Table walker requests started/completed, data/inst
system.cpu.dtb.stage2_mmu.stage2_tlb.walker.walks            0                       # Table walker walks requested
system.cpu.dtb.stage2_mmu.stage2_tlb.write_accesses            0                       # DTB write accesses
system.cpu.dtb.stage2_mmu.stage2_tlb.write_hits            0                       # DTB write hits
system.cpu.dtb.stage2_mmu.stage2_tlb.write_misses            0                       # DTB write misses
system.cpu.dtb.walker.walkRequestOrigin_Requested::Data            0                       # Table walker requests started/completed, data/inst
system.cpu.dtb.walker.walkRequestOrigin_Requested::Inst            0                       # Table walker requests started/completed, data/inst
system.cpu.dtb.walker.walkRequestOrigin_Requested::total            0                       # Table walker requests started/completed, data/inst
system.cpu.dtb.walker.walkRequestOrigin_Completed::Data            0                       # Table walker requests started/completed, data/inst
system.cpu.dtb.walker.walkRequestOrigin_Completed::Inst            0                       # Table walker requests started/completed, data/inst
system.cpu.dtb.walker.walkRequestOrigin_Completed::total            0                       # Table walker requests started/completed, data/inst
system.cpu.dtb.walker.walkRequestOrigin::total            0                       # Table walker requests started/completed, data/inst
system.cpu.dtb.walker.walks                         0                       # Table walker walks requested
system.cpu.dtb.write_accesses                       0                       # DTB write accesses
system.cpu.dtb.write_hits                           0                       # DTB write hits
system.cpu.dtb.write_misses                         0                       # DTB write misses
system.cpu.fetch2.amo_instructions                  0                       # Number of memory atomic instructions successfully decoded
system.cpu.fetch2.fp_instructions                   0                       # Number of floating point instructions successfully decoded
system.cpu.fetch2.int_instructions           49596015                       # Number of integer instructions successfully decoded
system.cpu.fetch2.load_instructions          17142060                       # Number of memory load instructions successfully decoded
system.cpu.fetch2.store_instructions          9894363                       # Number of memory store instructions successfully decoded
system.cpu.fetch2.vec_instructions                  0                       # Number of SIMD instructions successfully decoded
system.cpu.idleCycles                        20096041                       # Total number of cycles that the object has spent stopped
system.cpu.ipc                               0.713106                       # IPC: instructions per cycle
system.cpu.itb.accesses                             0                       # DTB accesses
system.cpu.itb.align_faults                         0                       # Number of TLB faults due to alignment restrictions
system.cpu.itb.domain_faults                        0                       # Number of TLB faults due to domain restrictions
system.cpu.itb.flush_entries                        0                       # Number of entries that have been flushed from TLB
system.cpu.itb.flush_tlb                            0                       # Number of times complete TLB was flushed
system.cpu.itb.flush_tlb_asid                       0                       # Number of times TLB was flushed by ASID
system.cpu.itb.flush_tlb_mva                        0                       # Number of times TLB was flushed by MVA
system.cpu.itb.flush_tlb_mva_asid                   0                       # Number of times TLB was flushed by MVA & ASID
system.cpu.itb.hits                                 0                       # DTB hits
system.cpu.itb.inst_accesses                        0                       # ITB inst accesses
system.cpu.itb.inst_hits                            0                       # ITB inst hits
system.cpu.itb.inst_misses                          0                       # ITB inst misses
system.cpu.itb.misses                               0                       # DTB misses
system.cpu.itb.perms_faults                         0                       # Number of TLB faults due to permissions restrictions
system.cpu.itb.prefetch_faults                      0                       # Number of TLB faults due to prefetch
system.cpu.itb.read_accesses                        0                       # DTB read accesses
system.cpu.itb.read_hits                            0                       # DTB read hits
system.cpu.itb.read_misses                          0                       # DTB read misses
system.cpu.itb.stage2_mmu.stage2_tlb.accesses            0                       # DTB accesses
system.cpu.itb.stage2_mmu.stage2_tlb.align_faults            0                       # Number of TLB faults due to alignment restrictions
system.cpu.itb.stage2_mmu.stage2_tlb.domain_faults            0                       # Number of TLB faults due to domain restrictions
system.cpu.itb.stage2_mmu.stage2_tlb.flush_entries            0                       # Number of entries that have been flushed from TLB
system.cpu.itb.stage2_mmu.stage2_tlb.flush_tlb            0                       # Number of times complete TLB was flushed
system.cpu.itb.stage2_mmu.stage2_tlb.flush_tlb_asid            0                       # Number of times TLB was flushed by ASID
system.cpu.itb.stage2_mmu.stage2_tlb.flush_tlb_mva            0                       # Number of times TLB was flushed by MVA
system.cpu.itb.stage2_mmu.stage2_tlb.flush_tlb_mva_asid            0                       # Number of times TLB was flushed by MVA & ASID
system.cpu.itb.stage2_mmu.stage2_tlb.hits            0                       # DTB hits
system.cpu.itb.stage2_mmu.stage2_tlb.inst_accesses            0                       # ITB inst accesses
system.cpu.itb.stage2_mmu.stage2_tlb.inst_hits            0                       # ITB inst hits
system.cpu.itb.stage2_mmu.stage2_tlb.inst_misses            0                       # ITB inst misses
system.cpu.itb.stage2_mmu.stage2_tlb.misses            0                       # DTB misses
system.cpu.itb.stage2_mmu.stage2_tlb.perms_faults            0                       # Number of TLB faults due to permissions restrictions
system.cpu.itb.stage2_mmu.stage2_tlb.prefetch_faults            0                       # Number of TLB faults due to prefetch
system.cpu.itb.stage2_mmu.stage2_tlb.read_accesses            0                       # DTB read accesses
system.cpu.itb.stage2_mmu.stage2_tlb.read_hits            0                       # DTB read hits
system.cpu.itb.stage2_mmu.stage2_tlb.read_misses            0                       # DTB read misses
system.cpu.itb.stage2_mmu.stage2_tlb.walker.walkRequestOrigin_Requested::Data            0                       # Table walker requests started/completed, data/inst
system.cpu.itb.stage2_mmu.stage2_tlb.walker.walkRequestOrigin_Requested::Inst            0                       # Table walker requests started/completed, data/inst
system.cpu.itb.stage2_mmu.stage2_tlb.walker.walkRequestOrigin_Requested::total            0                       # Table walker requests started/completed, data/inst
system.cpu.itb.stage2_mmu.stage2_tlb.walker.walkRequestOrigin_Completed::Data            0                       # Table walker requests started/completed, data/inst
system.cpu.itb.stage2_mmu.stage2_tlb.walker.walkRequestOrigin_Completed::Inst            0                       # Table walker requests started/completed, data/inst
system.cpu.itb.stage2_mmu.stage2_tlb.walker.walkRequestOrigin_Completed::total            0                       # Table walker requests started/completed, data/inst
system.cpu.itb.stage2_mmu.stage2_tlb.walker.walkRequestOrigin::total            0                       # Table walker requests started/completed, data/inst
system.cpu.itb.stage2_mmu.stage2_tlb.walker.walks            0                       # Table walker walks requested
system.cpu.itb.stage2_mmu.stage2_tlb.write_accesses            0                       # DTB write accesses
system.cpu.itb.stage2_mmu.stage2_tlb.write_hits            0                       # DTB write hits
system.cpu.itb.stage2_mmu.stage2_tlb.write_misses            0                       # DTB write misses
system.cpu.itb.walker.walkRequestOrigin_Requested::Data            0                       # Table walker requests started/completed, data/inst
system.cpu.itb.walker.walkRequestOrigin_Requested::Inst            0                       # Table walker requests started/completed, data/inst
system.cpu.itb.walker.walkRequestOrigin_Requested::total            0                       # Table walker requests started/completed, data/inst
system.cpu.itb.walker.walkRequestOrigin_Completed::Data            0                       # Table walker requests started/completed, data/inst
system.cpu.itb.walker.walkRequestOrigin_Completed::Inst            0                       # Table walker requests started/completed, data/inst
system.cpu.itb.walker.walkRequestOrigin_Completed::total            0                       # Table walker requests started/completed, data/inst
system.cpu.itb.walker.walkRequestOrigin::total            0                       # Table walker requests started/completed, data/inst
system.cpu.itb.walker.walks                         0                       # Table walker walks requested
system.cpu.itb.write_accesses                       0                       # DTB write accesses
system.cpu.itb.write_hits                           0                       # DTB write hits
system.cpu.itb.write_misses                         0                       # DTB write misses
system.cpu.numCycles                        140231595                       # number of cpu cycles simulated
system.cpu.numFetchSuspends                         0                       # Number of times Execute suspended instruction fetching
system.cpu.numWorkItemsCompleted                    0                       # number of work items this cpu completed
system.cpu.numWorkItemsStarted                      0                       # number of work items this cpu started
system.cpu.op_class_0::No_OpClass                   0      0.00%      0.00% # Class of committed instruction
system.cpu.op_class_0::IntAlu                72955303     66.67%     66.67% # Class of committed instruction
system.cpu.op_class_0::IntMult                 568365      0.52%     67.19% # Class of committed instruction
system.cpu.op_class_0::IntDiv                       0      0.00%     67.19% # Class of committed instruction
system.cpu.op_class_0::FloatAdd                     0      0.00%     67.19% # Class of committed instruction
system.cpu.op_class_0::FloatCmp                     0      0.00%     67.19% # Class of committed instruction
system.cpu.op_class_0::FloatCvt                     0      0.00%     67.19% # Class of committed instruction
system.cpu.op_class_0::FloatMult                    0      0.00%     67.19% # Class of committed instruction
system.cpu.op_class_0::FloatMultAcc                 0      0.00%     67.19% # Class of committed instruction
system.cpu.op_class_0::FloatDiv                     0      0.00%     67.19% # Class of committed instruction
system.cpu.op_class_0::FloatMisc                    0      0.00%     67.19% # Class of committed instruction
system.cpu.op_class_0::FloatSqrt                    0      0.00%     67.19% # Class of committed instruction
system.cpu.op_class_0::SimdAdd                 241252      0.22%     67.41% # Class of committed instruction
system.cpu.op_class_0::SimdAddAcc                   0      0.00%     67.41% # Class of committed instruction
system.cpu.op_class_0::SimdAlu                 154720      0.14%     67.55% # Class of committed instruction
system.cpu.op_class_0::SimdCmp                 120626      0.11%     67.66% # Class of committed instruction
system.cpu.op_class_0::SimdCvt                      0      0.00%     67.66% # Class of committed instruction
system.cpu.op_class_0::SimdMisc                 44544      0.04%     67.70% # Class of committed instruction
system.cpu.op_class_0::SimdMult                     0      0.00%     67.70% # Class of committed instruction
system.cpu.op_class_0::SimdMultAcc                  0      0.00%     67.70% # Class of committed instruction
system.cpu.op_class_0::SimdShift                    0      0.00%     67.70% # Class of committed instruction
system.cpu.op_class_0::SimdShiftAcc                 0      0.00%     67.70% # Class of committed instruction
system.cpu.op_class_0::SimdDiv                      0      0.00%     67.70% # Class of committed instruction
system.cpu.op_class_0::SimdSqrt                     0      0.00%     67.70% # Class of committed instruction
system.cpu.op_class_0::SimdFloatAdd                 0      0.00%     67.70% # Class of committed instruction
system.cpu.op_class_0::SimdFloatAlu                 0      0.00%     67.70% # Class of committed instruction
system.cpu.op_class_0::SimdFloatCmp                 0      0.00%     67.70% # Class of committed instruction
system.cpu.op_class_0::SimdFloatCvt                 0      0.00%     67.70% # Class of committed instruction
system.cpu.op_class_0::SimdFloatDiv                 0      0.00%     67.70% # Class of committed instruction
system.cpu.op_class_0::SimdFloatMisc           166465      0.15%     67.85% # Class of committed instruction
system.cpu.op_class_0::SimdFloatMult                0      0.00%     67.85% # Class of committed instruction
system.cpu.op_class_0::SimdFloatMultAcc             0      0.00%     67.85% # Class of committed instruction
system.cpu.op_class_0::SimdFloatSqrt                0      0.00%     67.85% # Class of committed instruction
system.cpu.op_class_0::SimdReduceAdd                0      0.00%     67.85% # Class of committed instruction
system.cpu.op_class_0::SimdReduceAlu                0      0.00%     67.85% # Class of committed instruction
system.cpu.op_class_0::SimdReduceCmp                0      0.00%     67.85% # Class of committed instruction
system.cpu.op_class_0::SimdFloatReduceAdd            0      0.00%     67.85% # Class of committed instruction
system.cpu.op_class_0::SimdFloatReduceCmp            0      0.00%     67.85% # Class of committed instruction
system.cpu.op_class_0::SimdAes                      0      0.00%     67.85% # Class of committed instruction
system.cpu.op_class_0::SimdAesMix                   0      0.00%     67.85% # Class of committed instruction
system.cpu.op_class_0::SimdSha1Hash                 0      0.00%     67.85% # Class of committed instruction
system.cpu.op_class_0::SimdSha1Hash2                0      0.00%     67.85% # Class of committed instruction
system.cpu.op_class_0::SimdSha256Hash               0      0.00%     67.85% # Class of committed instruction
system.cpu.op_class_0::SimdSha256Hash2              0      0.00%     67.85% # Class of committed instruction
system.cpu.op_class_0::SimdShaSigma2                0      0.00%     67.85% # Class of committed instruction
system.cpu.op_class_0::SimdShaSigma3                0      0.00%     67.85% # Class of committed instruction
system.cpu.op_class_0::SimdPredAlu                  0      0.00%     67.85% # Class of committed instruction
system.cpu.op_class_0::MemRead               20646465     18.87%     86.72% # Class of committed instruction
system.cpu.op_class_0::MemWrite              14534197     13.28%    100.00% # Class of committed instruction
system.cpu.op_class_0::FloatMemRead                 0      0.00%    100.00% # Class of committed instruction
system.cpu.op_class_0::FloatMemWrite                0      0.00%    100.00% # Class of committed instruction
system.cpu.op_class_0::IprAccess                    0      0.00%    100.00% # Class of committed instruction
system.cpu.op_class_0::InstPrefetch                 0      0.00%    100.00% # Class of committed instruction
system.cpu.op_class_0::total                109431937                       # Class of committed instruction
system.cpu.tickCycles                       120135554                       # Number of cycles that the object actually ticked
system.cpu.workload.numSyscalls                    86                       # Number of system calls
system.membus.snoop_filter.hit_multi_requests            0                       # Number of requests hitting in the snoop filter with multiple (>1) holders of the requested data.
system.membus.snoop_filter.hit_multi_snoops            0                       # Number of snoops hitting in the snoop filter with multiple (>1) holders of the requested data.
system.membus.snoop_filter.hit_single_requests         6881                       # Number of requests hitting in the snoop filter with a single holder of the requested data.
system.membus.snoop_filter.hit_single_snoops            0                       # Number of snoops hitting in the snoop filter with a single holder of the requested data.
system.membus.snoop_filter.tot_requests         46747                       # Total number of requests made to the snoop filter.
system.membus.snoop_filter.tot_snoops               0                       # Total number of snoops made to the snoop filter.
system.tol2bus.snoop_filter.hit_multi_requests          456                       # Number of requests hitting in the snoop filter with multiple (>1) holders of the requested data.
system.tol2bus.snoop_filter.hit_multi_snoops            1                       # Number of snoops hitting in the snoop filter with multiple (>1) holders of the requested data.
system.tol2bus.snoop_filter.hit_single_requests      1260215                       # Number of requests hitting in the snoop filter with a single holder of the requested data.
system.tol2bus.snoop_filter.hit_single_snoops          221                       # Number of snoops hitting in the snoop filter with a single holder of the requested data.
system.tol2bus.snoop_filter.tot_requests      2521693                       # Total number of requests made to the snoop filter.
system.tol2bus.snoop_filter.tot_snoops            222                       # Total number of snoops made to the snoop filter.
system.membus.pwrStateResidencyTicks::UNDEFINED  70115797500                       # Cumulative time (in ticks) in various power states
system.membus.trans_dist::ReadResp               1054                       # Transaction distribution
system.membus.trans_dist::WritebackDirty         6580                       # Transaction distribution
system.membus.trans_dist::CleanEvict              301                       # Transaction distribution
system.membus.trans_dist::ReadExReq             38812                       # Transaction distribution
system.membus.trans_dist::ReadExResp            38812                       # Transaction distribution
system.membus.trans_dist::ReadSharedReq          1054                       # Transaction distribution
system.membus.pkt_count_system.l2.mem_side::system.mem_ctrls.port        86613                       # Packet count per connected master and slave (bytes)
system.membus.pkt_count::total                  86613                       # Packet count per connected master and slave (bytes)
system.membus.pkt_size_system.l2.mem_side::system.mem_ctrls.port      2972544                       # Cumulative packet size per connected master and slave (bytes)
system.membus.pkt_size::total                 2972544                       # Cumulative packet size per connected master and slave (bytes)
system.membus.snoops                                0                       # Total snoops (count)
system.membus.snoopTraffic                          0                       # Total snoop traffic (bytes)
system.membus.snoop_fanout::samples             39866                       # Request fanout histogram
system.membus.snoop_fanout::mean                    0                       # Request fanout histogram
system.membus.snoop_fanout::stdev                   0                       # Request fanout histogram
system.membus.snoop_fanout::underflows              0      0.00%      0.00% # Request fanout histogram
system.membus.snoop_fanout::0                   39866    100.00%    100.00% # Request fanout histogram
system.membus.snoop_fanout::1                       0      0.00%    100.00% # Request fanout histogram
system.membus.snoop_fanout::overflows               0      0.00%    100.00% # Request fanout histogram
system.membus.snoop_fanout::min_value               0                       # Request fanout histogram
system.membus.snoop_fanout::max_value               0                       # Request fanout histogram
system.membus.snoop_fanout::total               39866                       # Request fanout histogram
system.membus.respLayer1.occupancy          212856500                       # Layer occupancy (ticks)
system.membus.respLayer1.utilization              0.3                       # Layer utilization (%)
system.membus.reqLayer0.occupancy            81338500                       # Layer occupancy (ticks)
system.membus.reqLayer0.utilization               0.1                       # Layer utilization (%)
system.tol2bus.pwrStateResidencyTicks::UNDEFINED  70115797500                       # Cumulative time (in ticks) in various power states
system.tol2bus.trans_dist::ReadResp           1222546                       # Transaction distribution
system.tol2bus.trans_dist::WritebackDirty        57104                       # Transaction distribution
system.tol2bus.trans_dist::WritebackClean      1205759                       # Transaction distribution
system.tol2bus.trans_dist::CleanEvict            4449                       # Transaction distribution
system.tol2bus.trans_dist::ReadExReq            38935                       # Transaction distribution
system.tol2bus.trans_dist::ReadExResp           38935                       # Transaction distribution
system.tol2bus.trans_dist::ReadCleanReq       1206006                       # Transaction distribution
system.tol2bus.trans_dist::ReadSharedReq        16541                       # Transaction distribution
system.tol2bus.pkt_count_system.cpu.icache.mem_side::system.l2.cpu_side      3617770                       # Packet count per connected master and slave (bytes)
system.tol2bus.pkt_count_system.cpu.dcache.mem_side::system.l2.cpu_side       165404                       # Packet count per connected master and slave (bytes)
system.tol2bus.pkt_count::total               3783174                       # Packet count per connected master and slave (bytes)
system.tol2bus.pkt_size_system.cpu.icache.mem_side::system.l2.cpu_side    154352896                       # Cumulative packet size per connected master and slave (bytes)
system.tol2bus.pkt_size_system.cpu.dcache.mem_side::system.l2.cpu_side      6784000                       # Cumulative packet size per connected master and slave (bytes)
system.tol2bus.pkt_size::total              161136896                       # Cumulative packet size per connected master and slave (bytes)
system.tol2bus.snoops                            7101                       # Total snoops (count)
system.tol2bus.snoopTraffic                    421120                       # Total snoop traffic (bytes)
system.tol2bus.snoop_fanout::samples          1268583                       # Request fanout histogram
system.tol2bus.snoop_fanout::mean            0.000538                       # Request fanout histogram
system.tol2bus.snoop_fanout::stdev           0.023231                       # Request fanout histogram
system.tol2bus.snoop_fanout::underflows             0      0.00%      0.00% # Request fanout histogram
system.tol2bus.snoop_fanout::0                1267901     99.95%     99.95% # Request fanout histogram
system.tol2bus.snoop_fanout::1                    681      0.05%    100.00% # Request fanout histogram
system.tol2bus.snoop_fanout::2                      1      0.00%    100.00% # Request fanout histogram
system.tol2bus.snoop_fanout::overflows              0      0.00%    100.00% # Request fanout histogram
system.tol2bus.snoop_fanout::min_value              0                       # Request fanout histogram
system.tol2bus.snoop_fanout::max_value              2                       # Request fanout histogram
system.tol2bus.snoop_fanout::total            1268583                       # Request fanout histogram
system.tol2bus.reqLayer0.occupancy         2517129500                       # Layer occupancy (ticks)
system.tol2bus.reqLayer0.utilization              3.6                       # Layer utilization (%)
system.tol2bus.respLayer1.occupancy          83216495                       # Layer occupancy (ticks)
system.tol2bus.respLayer1.utilization             0.1                       # Layer utilization (%)
system.tol2bus.respLayer0.occupancy        1809007999                       # Layer occupancy (ticks)
system.tol2bus.respLayer0.utilization             2.6                       # Layer utilization (%)
system.voltage_domain.voltage                       1                       # Voltage in Volts
system.clk_domain.clock                          1000                       # Clock period in ticks
system.l2.pwrStateResidencyTicks::UNDEFINED  70115797500                       # Cumulative time (in ticks) in various power states
system.l2.demand_hits::.cpu.inst              1205495                       # number of demand (read+write) hits
system.l2.demand_hits::.cpu.data                16115                       # number of demand (read+write) hits
system.l2.demand_hits::total                  1221610                       # number of demand (read+write) hits
system.l2.overall_hits::.cpu.inst             1205495                       # number of overall hits
system.l2.overall_hits::.cpu.data               16115                       # number of overall hits
system.l2.overall_hits::total                 1221610                       # number of overall hits
system.l2.demand_misses::.cpu.inst                511                       # number of demand (read+write) misses
system.l2.demand_misses::.cpu.data              39361                       # number of demand (read+write) misses
system.l2.demand_misses::total                  39872                       # number of demand (read+write) misses
system.l2.overall_misses::.cpu.inst               511                       # number of overall misses
system.l2.overall_misses::.cpu.data             39361                       # number of overall misses
system.l2.overall_misses::total                 39872                       # number of overall misses
system.l2.demand_miss_latency::.cpu.inst     39281000                       # number of demand (read+write) miss cycles
system.l2.demand_miss_latency::.cpu.data   3057848000                       # number of demand (read+write) miss cycles
system.l2.demand_miss_latency::total       3097129000                       # number of demand (read+write) miss cycles
system.l2.overall_miss_latency::.cpu.inst     39281000                       # number of overall miss cycles
system.l2.overall_miss_latency::.cpu.data   3057848000                       # number of overall miss cycles
system.l2.overall_miss_latency::total      3097129000                       # number of overall miss cycles
system.l2.demand_accesses::.cpu.inst          1206006                       # number of demand (read+write) accesses
system.l2.demand_accesses::.cpu.data            55476                       # number of demand (read+write) accesses
system.l2.demand_accesses::total              1261482                       # number of demand (read+write) accesses
system.l2.overall_accesses::.cpu.inst         1206006                       # number of overall (read+write) accesses
system.l2.overall_accesses::.cpu.data           55476                       # number of overall (read+write) accesses
system.l2.overall_accesses::total             1261482                       # number of overall (read+write) accesses
system.l2.demand_miss_rate::.cpu.inst        0.000424                       # miss rate for demand accesses
system.l2.demand_miss_rate::.cpu.data        0.709514                       # miss rate for demand accesses
system.l2.demand_miss_rate::total            0.031607                       # miss rate for demand accesses
system.l2.overall_miss_rate::.cpu.inst       0.000424                       # miss rate for overall accesses
system.l2.overall_miss_rate::.cpu.data       0.709514                       # miss rate for overall accesses
system.l2.overall_miss_rate::total           0.031607                       # miss rate for overall accesses
system.l2.demand_avg_miss_latency::.cpu.inst 76870.841487                       # average overall miss latency
system.l2.demand_avg_miss_latency::.cpu.data 77687.253881                       # average overall miss latency
system.l2.demand_avg_miss_latency::total 77676.790730                       # average overall miss latency
system.l2.overall_avg_miss_latency::.cpu.inst 76870.841487                       # average overall miss latency
system.l2.overall_avg_miss_latency::.cpu.data 77687.253881                       # average overall miss latency
system.l2.overall_avg_miss_latency::total 77676.790730                       # average overall miss latency
system.l2.blocked_cycles::no_mshrs                  0                       # number of cycles access was blocked
system.l2.blocked_cycles::no_targets                0                       # number of cycles access was blocked
system.l2.blocked::no_mshrs                         0                       # number of cycles access was blocked
system.l2.blocked::no_targets                       0                       # number of cycles access was blocked
system.l2.avg_blocked_cycles::no_mshrs            nan                       # average number of cycles each access was blocked
system.l2.avg_blocked_cycles::no_targets          nan                       # average number of cycles each access was blocked
system.l2.writebacks::.writebacks                6580                       # number of writebacks
system.l2.writebacks::total                      6580                       # number of writebacks
system.l2.demand_mshr_hits::.cpu.inst               1                       # number of demand (read+write) MSHR hits
system.l2.demand_mshr_hits::.cpu.data               5                       # number of demand (read+write) MSHR hits
system.l2.demand_mshr_hits::total                   6                       # number of demand (read+write) MSHR hits
system.l2.overall_mshr_hits::.cpu.inst              1                       # number of overall MSHR hits
system.l2.overall_mshr_hits::.cpu.data              5                       # number of overall MSHR hits
system.l2.overall_mshr_hits::total                  6                       # number of overall MSHR hits
system.l2.demand_mshr_misses::.cpu.inst           510                       # number of demand (read+write) MSHR misses
system.l2.demand_mshr_misses::.cpu.data         39356                       # number of demand (read+write) MSHR misses
system.l2.demand_mshr_misses::total             39866                       # number of demand (read+write) MSHR misses
system.l2.overall_mshr_misses::.cpu.inst          510                       # number of overall MSHR misses
system.l2.overall_mshr_misses::.cpu.data        39356                       # number of overall MSHR misses
system.l2.overall_mshr_misses::total            39866                       # number of overall MSHR misses
system.l2.demand_mshr_miss_latency::.cpu.inst     34116500                       # number of demand (read+write) MSHR miss cycles
system.l2.demand_mshr_miss_latency::.cpu.data   2663961000                       # number of demand (read+write) MSHR miss cycles
system.l2.demand_mshr_miss_latency::total   2698077500                       # number of demand (read+write) MSHR miss cycles
system.l2.overall_mshr_miss_latency::.cpu.inst     34116500                       # number of overall MSHR miss cycles
system.l2.overall_mshr_miss_latency::.cpu.data   2663961000                       # number of overall MSHR miss cycles
system.l2.overall_mshr_miss_latency::total   2698077500                       # number of overall MSHR miss cycles
system.l2.demand_mshr_miss_rate::.cpu.inst     0.000423                       # mshr miss rate for demand accesses
system.l2.demand_mshr_miss_rate::.cpu.data     0.709424                       # mshr miss rate for demand accesses
system.l2.demand_mshr_miss_rate::total       0.031603                       # mshr miss rate for demand accesses
system.l2.overall_mshr_miss_rate::.cpu.inst     0.000423                       # mshr miss rate for overall accesses
system.l2.overall_mshr_miss_rate::.cpu.data     0.709424                       # mshr miss rate for overall accesses
system.l2.overall_mshr_miss_rate::total      0.031603                       # mshr miss rate for overall accesses
system.l2.demand_avg_mshr_miss_latency::.cpu.inst 66895.098039                       # average overall mshr miss latency
system.l2.demand_avg_mshr_miss_latency::.cpu.data 67688.814920                       # average overall mshr miss latency
system.l2.demand_avg_mshr_miss_latency::total 67678.661014                       # average overall mshr miss latency
system.l2.overall_avg_mshr_miss_latency::.cpu.inst 66895.098039                       # average overall mshr miss latency
system.l2.overall_avg_mshr_miss_latency::.cpu.data 67688.814920                       # average overall mshr miss latency
system.l2.overall_avg_mshr_miss_latency::total 67678.661014                       # average overall mshr miss latency
system.l2.replacements                           7101                       # number of replacements
system.l2.WritebackDirty_hits::.writebacks        50524                       # number of WritebackDirty hits
system.l2.WritebackDirty_hits::total            50524                       # number of WritebackDirty hits
system.l2.WritebackDirty_accesses::.writebacks        50524                       # number of WritebackDirty accesses(hits+misses)
system.l2.WritebackDirty_accesses::total        50524                       # number of WritebackDirty accesses(hits+misses)
system.l2.WritebackClean_hits::.writebacks      1205315                       # number of WritebackClean hits
system.l2.WritebackClean_hits::total          1205315                       # number of WritebackClean hits
system.l2.WritebackClean_accesses::.writebacks      1205315                       # number of WritebackClean accesses(hits+misses)
system.l2.WritebackClean_accesses::total      1205315                       # number of WritebackClean accesses(hits+misses)
system.l2.CleanEvict_mshr_misses::.writebacks            2                       # number of CleanEvict MSHR misses
system.l2.CleanEvict_mshr_misses::total             2                       # number of CleanEvict MSHR misses
system.l2.CleanEvict_mshr_miss_rate::.writebacks          inf                       # mshr miss rate for CleanEvict accesses
system.l2.CleanEvict_mshr_miss_rate::total          inf                       # mshr miss rate for CleanEvict accesses
system.l2.ReadExReq_hits::.cpu.data               123                       # number of ReadExReq hits
system.l2.ReadExReq_hits::total                   123                       # number of ReadExReq hits
system.l2.ReadExReq_misses::.cpu.data           38812                       # number of ReadExReq misses
system.l2.ReadExReq_misses::total               38812                       # number of ReadExReq misses
system.l2.ReadExReq_miss_latency::.cpu.data   3010281500                       # number of ReadExReq miss cycles
system.l2.ReadExReq_miss_latency::total    3010281500                       # number of ReadExReq miss cycles
system.l2.ReadExReq_accesses::.cpu.data         38935                       # number of ReadExReq accesses(hits+misses)
system.l2.ReadExReq_accesses::total             38935                       # number of ReadExReq accesses(hits+misses)
system.l2.ReadExReq_miss_rate::.cpu.data     0.996841                       # miss rate for ReadExReq accesses
system.l2.ReadExReq_miss_rate::total         0.996841                       # miss rate for ReadExReq accesses
system.l2.ReadExReq_avg_miss_latency::.cpu.data 77560.586932                       # average ReadExReq miss latency
system.l2.ReadExReq_avg_miss_latency::total 77560.586932                       # average ReadExReq miss latency
system.l2.ReadExReq_mshr_misses::.cpu.data        38812                       # number of ReadExReq MSHR misses
system.l2.ReadExReq_mshr_misses::total          38812                       # number of ReadExReq MSHR misses
system.l2.ReadExReq_mshr_miss_latency::.cpu.data   2622161500                       # number of ReadExReq MSHR miss cycles
system.l2.ReadExReq_mshr_miss_latency::total   2622161500                       # number of ReadExReq MSHR miss cycles
system.l2.ReadExReq_mshr_miss_rate::.cpu.data     0.996841                       # mshr miss rate for ReadExReq accesses
system.l2.ReadExReq_mshr_miss_rate::total     0.996841                       # mshr miss rate for ReadExReq accesses
system.l2.ReadExReq_avg_mshr_miss_latency::.cpu.data 67560.586932                       # average ReadExReq mshr miss latency
system.l2.ReadExReq_avg_mshr_miss_latency::total 67560.586932                       # average ReadExReq mshr miss latency
system.l2.ReadCleanReq_hits::.cpu.inst        1205495                       # number of ReadCleanReq hits
system.l2.ReadCleanReq_hits::total            1205495                       # number of ReadCleanReq hits
system.l2.ReadCleanReq_misses::.cpu.inst          511                       # number of ReadCleanReq misses
system.l2.ReadCleanReq_misses::total              511                       # number of ReadCleanReq misses
system.l2.ReadCleanReq_miss_latency::.cpu.inst     39281000                       # number of ReadCleanReq miss cycles
system.l2.ReadCleanReq_miss_latency::total     39281000                       # number of ReadCleanReq miss cycles
system.l2.ReadCleanReq_accesses::.cpu.inst      1206006                       # number of ReadCleanReq accesses(hits+misses)
system.l2.ReadCleanReq_accesses::total        1206006                       # number of ReadCleanReq accesses(hits+misses)
system.l2.ReadCleanReq_miss_rate::.cpu.inst     0.000424                       # miss rate for ReadCleanReq accesses
system.l2.ReadCleanReq_miss_rate::total      0.000424                       # miss rate for ReadCleanReq accesses
system.l2.ReadCleanReq_avg_miss_latency::.cpu.inst 76870.841487                       # average ReadCleanReq miss latency
system.l2.ReadCleanReq_avg_miss_latency::total 76870.841487                       # average ReadCleanReq miss latency
system.l2.ReadCleanReq_mshr_hits::.cpu.inst            1                       # number of ReadCleanReq MSHR hits
system.l2.ReadCleanReq_mshr_hits::total             1                       # number of ReadCleanReq MSHR hits
system.l2.ReadCleanReq_mshr_misses::.cpu.inst          510                       # number of ReadCleanReq MSHR misses
system.l2.ReadCleanReq_mshr_misses::total          510                       # number of ReadCleanReq MSHR misses
system.l2.ReadCleanReq_mshr_miss_latency::.cpu.inst     34116500                       # number of ReadCleanReq MSHR miss cycles
system.l2.ReadCleanReq_mshr_miss_latency::total     34116500                       # number of ReadCleanReq MSHR miss cycles
system.l2.ReadCleanReq_mshr_miss_rate::.cpu.inst     0.000423                       # mshr miss rate for ReadCleanReq accesses
system.l2.ReadCleanReq_mshr_miss_rate::total     0.000423                       # mshr miss rate for ReadCleanReq accesses
system.l2.ReadCleanReq_avg_mshr_miss_latency::.cpu.inst 66895.098039                       # average ReadCleanReq mshr miss latency
system.l2.ReadCleanReq_avg_mshr_miss_latency::total 66895.098039                       # average ReadCleanReq mshr miss latency
system.l2.ReadSharedReq_hits::.cpu.data         15992                       # number of ReadSharedReq hits
system.l2.ReadSharedReq_hits::total             15992                       # number of ReadSharedReq hits
system.l2.ReadSharedReq_misses::.cpu.data          549                       # number of ReadSharedReq misses
system.l2.ReadSharedReq_misses::total             549                       # number of ReadSharedReq misses
system.l2.ReadSharedReq_miss_latency::.cpu.data     47566500                       # number of ReadSharedReq miss cycles
system.l2.ReadSharedReq_miss_latency::total     47566500                       # number of ReadSharedReq miss cycles
system.l2.ReadSharedReq_accesses::.cpu.data        16541                       # number of ReadSharedReq accesses(hits+misses)
system.l2.ReadSharedReq_accesses::total         16541                       # number of ReadSharedReq accesses(hits+misses)
system.l2.ReadSharedReq_miss_rate::.cpu.data     0.033190                       # miss rate for ReadSharedReq accesses
system.l2.ReadSharedReq_miss_rate::total     0.033190                       # miss rate for ReadSharedReq accesses
system.l2.ReadSharedReq_avg_miss_latency::.cpu.data 86642.076503                       # average ReadSharedReq miss latency
system.l2.ReadSharedReq_avg_miss_latency::total 86642.076503                       # average ReadSharedReq miss latency
system.l2.ReadSharedReq_mshr_hits::.cpu.data            5                       # number of ReadSharedReq MSHR hits
system.l2.ReadSharedReq_mshr_hits::total            5                       # number of ReadSharedReq MSHR hits
system.l2.ReadSharedReq_mshr_misses::.cpu.data          544                       # number of ReadSharedReq MSHR misses
system.l2.ReadSharedReq_mshr_misses::total          544                       # number of ReadSharedReq MSHR misses
system.l2.ReadSharedReq_mshr_miss_latency::.cpu.data     41799500                       # number of ReadSharedReq MSHR miss cycles
system.l2.ReadSharedReq_mshr_miss_latency::total     41799500                       # number of ReadSharedReq MSHR miss cycles
system.l2.ReadSharedReq_mshr_miss_rate::.cpu.data     0.032888                       # mshr miss rate for ReadSharedReq accesses
system.l2.ReadSharedReq_mshr_miss_rate::total     0.032888                       # mshr miss rate for ReadSharedReq accesses
system.l2.ReadSharedReq_avg_mshr_miss_latency::.cpu.data 76837.316176                       # average ReadSharedReq mshr miss latency
system.l2.ReadSharedReq_avg_mshr_miss_latency::total 76837.316176                       # average ReadSharedReq mshr miss latency
system.l2.tags.pwrStateResidencyTicks::UNDEFINED  70115797500                       # Cumulative time (in ticks) in various power states
system.l2.tags.tagsinuse                 25883.133937                       # Cycle average of tags in use
system.l2.tags.total_refs                     2521229                       # Total number of references to valid blocks.
system.l2.tags.sampled_refs                     39869                       # Sample count of references to valid blocks.
system.l2.tags.avg_refs                     63.237829                       # Average number of references to valid blocks.
system.l2.tags.warmup_cycle                     77000                       # Cycle when the warmup percentage was hit.
system.l2.tags.occ_blocks::.writebacks       1.158672                       # Average occupied blocks per requestor
system.l2.tags.occ_blocks::.cpu.inst       331.925921                       # Average occupied blocks per requestor
system.l2.tags.occ_blocks::.cpu.data     25550.049344                       # Average occupied blocks per requestor
system.l2.tags.occ_percent::.writebacks      0.000035                       # Average percentage of cache occupancy
system.l2.tags.occ_percent::.cpu.inst        0.010130                       # Average percentage of cache occupancy
system.l2.tags.occ_percent::.cpu.data        0.779726                       # Average percentage of cache occupancy
system.l2.tags.occ_percent::total            0.789891                       # Average percentage of cache occupancy
system.l2.tags.occ_task_id_blocks::1024         32768                       # Occupied blocks per task id
system.l2.tags.age_task_id_blocks_1024::0            3                       # Occupied blocks per task id
system.l2.tags.age_task_id_blocks_1024::1           29                       # Occupied blocks per task id
system.l2.tags.age_task_id_blocks_1024::2          324                       # Occupied blocks per task id
system.l2.tags.age_task_id_blocks_1024::3         3106                       # Occupied blocks per task id
system.l2.tags.age_task_id_blocks_1024::4        29306                       # Occupied blocks per task id
system.l2.tags.occ_task_id_percent::1024            1                       # Percentage of cache occupancy per task id
system.l2.tags.tag_accesses                  20209765                       # Number of tag accesses
system.l2.tags.data_accesses                 20209765                       # Number of data accesses
system.cpu_voltage_domain.voltage                   1                       # Voltage in Volts
system.mem_ctrls.pwrStateResidencyTicks::UNDEFINED  70115797500                       # Cumulative time (in ticks) in various power states
system.mem_ctrls.bytes_read::.cpu.inst          32640                       # Number of bytes read from this memory
system.mem_ctrls.bytes_read::.cpu.data        2518784                       # Number of bytes read from this memory
system.mem_ctrls.bytes_read::total            2551424                       # Number of bytes read from this memory
system.mem_ctrls.bytes_inst_read::.cpu.inst        32640                       # Number of instructions bytes read from this memory
system.mem_ctrls.bytes_inst_read::total         32640                       # Number of instructions bytes read from this memory
system.mem_ctrls.bytes_written::.writebacks       421120                       # Number of bytes written to this memory
system.mem_ctrls.bytes_written::total          421120                       # Number of bytes written to this memory
system.mem_ctrls.num_reads::.cpu.inst             510                       # Number of read requests responded to by this memory
system.mem_ctrls.num_reads::.cpu.data           39356                       # Number of read requests responded to by this memory
system.mem_ctrls.num_reads::total               39866                       # Number of read requests responded to by this memory
system.mem_ctrls.num_writes::.writebacks         6580                       # Number of write requests responded to by this memory
system.mem_ctrls.num_writes::total               6580                       # Number of write requests responded to by this memory
system.mem_ctrls.bw_read::.cpu.inst            465516                       # Total read bandwidth from this memory (bytes/s)
system.mem_ctrls.bw_read::.cpu.data          35923203                       # Total read bandwidth from this memory (bytes/s)
system.mem_ctrls.bw_read::total              36388718                       # Total read bandwidth from this memory (bytes/s)
system.mem_ctrls.bw_inst_read::.cpu.inst       465516                       # Instruction read bandwidth from this memory (bytes/s)
system.mem_ctrls.bw_inst_read::total           465516                       # Instruction read bandwidth from this memory (bytes/s)
system.mem_ctrls.bw_write::.writebacks        6006064                       # Write bandwidth from this memory (bytes/s)
system.mem_ctrls.bw_write::total              6006064                       # Write bandwidth from this memory (bytes/s)
system.mem_ctrls.bw_total::.writebacks        6006064                       # Total bandwidth to/from this memory (bytes/s)
system.mem_ctrls.bw_total::.cpu.inst           465516                       # Total bandwidth to/from this memory (bytes/s)
system.mem_ctrls.bw_total::.cpu.data         35923203                       # Total bandwidth to/from this memory (bytes/s)
system.mem_ctrls.bw_total::total             42394783                       # Total bandwidth to/from this memory (bytes/s)
system.mem_ctrls.avgPriority_.writebacks::samples      6580.00                       # Average QoS priority value for accepted requests
system.mem_ctrls.avgPriority_.cpu.inst::samples       510.00                       # Average QoS priority value for accepted requests
system.mem_ctrls.avgPriority_.cpu.data::samples     39353.00                       # Average QoS priority value for accepted requests
system.mem_ctrls.priorityMinLatency      0.000000018750                       # per QoS priority minimum request to response latency (s)
system.mem_ctrls.priorityMaxLatency      0.017150504500                       # per QoS priority maximum request to response latency (s)
system.mem_ctrls.numReadWriteTurnArounds          364                       # Number of turnarounds from READ to WRITE
system.mem_ctrls.numWriteReadTurnArounds          364                       # Number of turnarounds from WRITE to READ
system.mem_ctrls.numStayReadState              104277                       # Number of times bus staying in READ state
system.mem_ctrls.numStayWriteState               6209                       # Number of times bus staying in WRITE state
system.mem_ctrls.readReqs                       39866                       # Number of read requests accepted
system.mem_ctrls.writeReqs                       6580                       # Number of write requests accepted
system.mem_ctrls.readBursts                     39866                       # Number of DRAM read bursts, including those serviced by the write queue
system.mem_ctrls.writeBursts                     6580                       # Number of DRAM write bursts, including those merged in the write queue
system.mem_ctrls.servicedByWrQ                      3                       # Number of DRAM read bursts serviced by the write queue
system.mem_ctrls.mergedWrBursts                     0                       # Number of DRAM write bursts merged with an existing one
system.mem_ctrls.neitherReadNorWriteReqs            0                       # Number of requests that are neither read nor write
system.mem_ctrls.perBankRdBursts::0              2476                       # Per bank write bursts
system.mem_ctrls.perBankRdBursts::1              2364                       # Per bank write bursts
system.mem_ctrls.perBankRdBursts::2              2347                       # Per bank write bursts
system.mem_ctrls.perBankRdBursts::3              2611                       # Per bank write bursts
system.mem_ctrls.perBankRdBursts::4              2682                       # Per bank write bursts
system.mem_ctrls.perBankRdBursts::5              2456                       # Per bank write bursts
system.mem_ctrls.perBankRdBursts::6              2446                       # Per bank write bursts
system.mem_ctrls.perBankRdBursts::7              2473                       # Per bank write bursts
system.mem_ctrls.perBankRdBursts::8              2474                       # Per bank write bursts
system.mem_ctrls.perBankRdBursts::9              2505                       # Per bank write bursts
system.mem_ctrls.perBankRdBursts::10             2490                       # Per bank write bursts
system.mem_ctrls.perBankRdBursts::11             2512                       # Per bank write bursts
system.mem_ctrls.perBankRdBursts::12             2508                       # Per bank write bursts
system.mem_ctrls.perBankRdBursts::13             2471                       # Per bank write bursts
system.mem_ctrls.perBankRdBursts::14             2553                       # Per bank write bursts
system.mem_ctrls.perBankRdBursts::15             2495                       # Per bank write bursts
system.mem_ctrls.perBankWrBursts::0               370                       # Per bank write bursts
system.mem_ctrls.perBankWrBursts::1               287                       # Per bank write bursts
system.mem_ctrls.perBankWrBursts::2               285                       # Per bank write bursts
system.mem_ctrls.perBankWrBursts::3               496                       # Per bank write bursts
system.mem_ctrls.perBankWrBursts::4               618                       # Per bank write bursts
system.mem_ctrls.perBankWrBursts::5               407                       # Per bank write bursts
system.mem_ctrls.perBankWrBursts::6               398                       # Per bank write bursts
system.mem_ctrls.perBankWrBursts::7               408                       # Per bank write bursts
system.mem_ctrls.perBankWrBursts::8               411                       # Per bank write bursts
system.mem_ctrls.perBankWrBursts::9               414                       # Per bank write bursts
system.mem_ctrls.perBankWrBursts::10              409                       # Per bank write bursts
system.mem_ctrls.perBankWrBursts::11              402                       # Per bank write bursts
system.mem_ctrls.perBankWrBursts::12              410                       # Per bank write bursts
system.mem_ctrls.perBankWrBursts::13              404                       # Per bank write bursts
system.mem_ctrls.perBankWrBursts::14              430                       # Per bank write bursts
system.mem_ctrls.perBankWrBursts::15              413                       # Per bank write bursts
system.mem_ctrls.avgRdQLen                       1.00                       # Average read queue length when enqueuing
system.mem_ctrls.avgWrQLen                      12.87                       # Average write queue length when enqueuing
system.mem_ctrls.totQLat                    314284750                       # Total ticks spent queuing
system.mem_ctrls.totBusLat                  199315000                       # Total ticks spent in databus transfers
system.mem_ctrls.totMemAccLat              1061716000                       # Total ticks spent from burst creation until serviced by the DRAM
system.mem_ctrls.avgQLat                      7884.12                       # Average queueing delay per DRAM burst
system.mem_ctrls.avgBusLat                    5000.00                       # Average bus latency per DRAM burst
system.mem_ctrls.avgMemAccLat                26634.12                       # Average memory access latency per DRAM burst
system.mem_ctrls.numRdRetry                         0                       # Number of times read queue was full causing retry
system.mem_ctrls.numWrRetry                         0                       # Number of times write queue was full causing retry
system.mem_ctrls.readRowHits                    26461                       # Number of row buffer hits during reads
system.mem_ctrls.writeRowHits                    5559                       # Number of row buffer hits during writes
system.mem_ctrls.readRowHitRate                 66.38                       # Row buffer hit rate for reads
system.mem_ctrls.writeRowHitRate                84.48                       # Row buffer hit rate for writes
system.mem_ctrls.readPktSize::0                     0                       # Read request sizes (log2)
system.mem_ctrls.readPktSize::1                     0                       # Read request sizes (log2)
system.mem_ctrls.readPktSize::2                     0                       # Read request sizes (log2)
system.mem_ctrls.readPktSize::3                     0                       # Read request sizes (log2)
system.mem_ctrls.readPktSize::4                     0                       # Read request sizes (log2)
system.mem_ctrls.readPktSize::5                     0                       # Read request sizes (log2)
system.mem_ctrls.readPktSize::6                 39866                       # Read request sizes (log2)
system.mem_ctrls.writePktSize::0                    0                       # Write request sizes (log2)
system.mem_ctrls.writePktSize::1                    0                       # Write request sizes (log2)
system.mem_ctrls.writePktSize::2                    0                       # Write request sizes (log2)
system.mem_ctrls.writePktSize::3                    0                       # Write request sizes (log2)
system.mem_ctrls.writePktSize::4                    0                       # Write request sizes (log2)
system.mem_ctrls.writePktSize::5                    0                       # Write request sizes (log2)
system.mem_ctrls.writePktSize::6                 6580                       # Write request sizes (log2)
system.mem_ctrls.rdQLenPdf::0                   39666                       # What read queue length does an incoming req see
system.mem_ctrls.rdQLenPdf::1                     191                       # What read queue length does an incoming req see
system.mem_ctrls.rdQLenPdf::2                       6                       # What read queue length does an incoming req see
system.mem_ctrls.rdQLenPdf::3                       0                       # What read queue length does an incoming req see
system.mem_ctrls.rdQLenPdf::4                       0                       # What read queue length does an incoming req see
system.mem_ctrls.rdQLenPdf::5                       0                       # What read queue length does an incoming req see
system.mem_ctrls.rdQLenPdf::6                       0                       # What read queue length does an incoming req see
system.mem_ctrls.rdQLenPdf::7                       0                       # What read queue length does an incoming req see
system.mem_ctrls.rdQLenPdf::8                       0                       # What read queue length does an incoming req see
system.mem_ctrls.rdQLenPdf::9                       0                       # What read queue length does an incoming req see
system.mem_ctrls.rdQLenPdf::10                      0                       # What read queue length does an incoming req see
system.mem_ctrls.rdQLenPdf::11                      0                       # What read queue length does an incoming req see
system.mem_ctrls.rdQLenPdf::12                      0                       # What read queue length does an incoming req see
system.mem_ctrls.rdQLenPdf::13                      0                       # What read queue length does an incoming req see
system.mem_ctrls.rdQLenPdf::14                      0                       # What read queue length does an incoming req see
system.mem_ctrls.rdQLenPdf::15                      0                       # What read queue length does an incoming req see
system.mem_ctrls.rdQLenPdf::16                      0                       # What read queue length does an incoming req see
system.mem_ctrls.rdQLenPdf::17                      0                       # What read queue length does an incoming req see
system.mem_ctrls.rdQLenPdf::18                      0                       # What read queue length does an incoming req see
system.mem_ctrls.rdQLenPdf::19                      0                       # What read queue length does an incoming req see
system.mem_ctrls.rdQLenPdf::20                      0                       # What read queue length does an incoming req see
system.mem_ctrls.rdQLenPdf::21                      0                       # What read queue length does an incoming req see
system.mem_ctrls.rdQLenPdf::22                      0                       # What read queue length does an incoming req see
system.mem_ctrls.rdQLenPdf::23                      0                       # What read queue length does an incoming req see
system.mem_ctrls.rdQLenPdf::24                      0                       # What read queue length does an incoming req see
system.mem_ctrls.rdQLenPdf::25                      0                       # What read queue length does an incoming req see
system.mem_ctrls.rdQLenPdf::26                      0                       # What read queue length does an incoming req see
system.mem_ctrls.rdQLenPdf::27                      0                       # What read queue length does an incoming req see
system.mem_ctrls.rdQLenPdf::28                      0                       # What read queue length does an incoming req see
system.mem_ctrls.rdQLenPdf::29                      0                       # What read queue length does an incoming req see
system.mem_ctrls.rdQLenPdf::30                      0                       # What read queue length does an incoming req see
system.mem_ctrls.rdQLenPdf::31                      0                       # What read queue length does an incoming req see
system.mem_ctrls.wrQLenPdf::0                       1                       # What write queue length does an incoming req see
system.mem_ctrls.wrQLenPdf::1                       1                       # What write queue length does an incoming req see
system.mem_ctrls.wrQLenPdf::2                       1                       # What write queue length does an incoming req see
system.mem_ctrls.wrQLenPdf::3                       1                       # What write queue length does an incoming req see
system.mem_ctrls.wrQLenPdf::4                       1                       # What write queue length does an incoming req see
system.mem_ctrls.wrQLenPdf::5                       1                       # What write queue length does an incoming req see
system.mem_ctrls.wrQLenPdf::6                       1                       # What write queue length does an incoming req see
system.mem_ctrls.wrQLenPdf::7                       1                       # What write queue length does an incoming req see
system.mem_ctrls.wrQLenPdf::8                       1                       # What write queue length does an incoming req see
system.mem_ctrls.wrQLenPdf::9                       1                       # What write queue length does an incoming req see
system.mem_ctrls.wrQLenPdf::10                      1                       # What write queue length does an incoming req see
system.mem_ctrls.wrQLenPdf::11                      1                       # What write queue length does an incoming req see
system.mem_ctrls.wrQLenPdf::12                      1                       # What write queue length does an incoming req see
system.mem_ctrls.wrQLenPdf::13                      1                       # What write queue length does an incoming req see
system.mem_ctrls.wrQLenPdf::14                      1                       # What write queue length does an incoming req see
system.mem_ctrls.wrQLenPdf::15                    364                       # What write queue length does an incoming req see
system.mem_ctrls.wrQLenPdf::16                    364                       # What write queue length does an incoming req see
system.mem_ctrls.wrQLenPdf::17                    365                       # What write queue length does an incoming req see
system.mem_ctrls.wrQLenPdf::18                    364                       # What write queue length does an incoming req see
system.mem_ctrls.wrQLenPdf::19                    364                       # What write queue length does an incoming req see
system.mem_ctrls.wrQLenPdf::20                    364                       # What write queue length does an incoming req see
system.mem_ctrls.wrQLenPdf::21                    364                       # What write queue length does an incoming req see
system.mem_ctrls.wrQLenPdf::22                    365                       # What write queue length does an incoming req see
system.mem_ctrls.wrQLenPdf::23                    365                       # What write queue length does an incoming req see
system.mem_ctrls.wrQLenPdf::24                    368                       # What write queue length does an incoming req see
system.mem_ctrls.wrQLenPdf::25                    367                       # What write queue length does an incoming req see
system.mem_ctrls.wrQLenPdf::26                    364                       # What write queue length does an incoming req see
system.mem_ctrls.wrQLenPdf::27                    365                       # What write queue length does an incoming req see
system.mem_ctrls.wrQLenPdf::28                    365                       # What write queue length does an incoming req see
system.mem_ctrls.wrQLenPdf::29                    365                       # What write queue length does an incoming req see
system.mem_ctrls.wrQLenPdf::30                    364                       # What write queue length does an incoming req see
system.mem_ctrls.wrQLenPdf::31                    364                       # What write queue length does an incoming req see
system.mem_ctrls.wrQLenPdf::32                    364                       # What write queue length does an incoming req see
system.mem_ctrls.wrQLenPdf::33                      0                       # What write queue length does an incoming req see
system.mem_ctrls.wrQLenPdf::34                      0                       # What write queue length does an incoming req see
system.mem_ctrls.wrQLenPdf::35                      0                       # What write queue length does an incoming req see
system.mem_ctrls.wrQLenPdf::36                      0                       # What write queue length does an incoming req see
system.mem_ctrls.wrQLenPdf::37                      0                       # What write queue length does an incoming req see
system.mem_ctrls.wrQLenPdf::38                      0                       # What write queue length does an incoming req see
system.mem_ctrls.wrQLenPdf::39                      0                       # What write queue length does an incoming req see
system.mem_ctrls.wrQLenPdf::40                      0                       # What write queue length does an incoming req see
system.mem_ctrls.wrQLenPdf::41                      0                       # What write queue length does an incoming req see
system.mem_ctrls.wrQLenPdf::42                      0                       # What write queue length does an incoming req see
system.mem_ctrls.wrQLenPdf::43                      0                       # What write queue length does an incoming req see
system.mem_ctrls.wrQLenPdf::44                      0                       # What write queue length does an incoming req see
system.mem_ctrls.wrQLenPdf::45                      0                       # What write queue length does an incoming req see
system.mem_ctrls.wrQLenPdf::46                      0                       # What write queue length does an incoming req see
system.mem_ctrls.wrQLenPdf::47                      0                       # What write queue length does an incoming req see
system.mem_ctrls.wrQLenPdf::48                      0                       # What write queue length does an incoming req see
system.mem_ctrls.wrQLenPdf::49                      0                       # What write queue length does an incoming req see
system.mem_ctrls.wrQLenPdf::50                      0                       # What write queue length does an incoming req see
system.mem_ctrls.wrQLenPdf::51                      0                       # What write queue length does an incoming req see
system.mem_ctrls.wrQLenPdf::52                      0                       # What write queue length does an incoming req see
system.mem_ctrls.wrQLenPdf::53                      0                       # What write queue length does an incoming req see
system.mem_ctrls.wrQLenPdf::54                      0                       # What write queue length does an incoming req see
system.mem_ctrls.wrQLenPdf::55                      0                       # What write queue length does an incoming req see
system.mem_ctrls.wrQLenPdf::56                      0                       # What write queue length does an incoming req see
system.mem_ctrls.wrQLenPdf::57                      0                       # What write queue length does an incoming req see
system.mem_ctrls.wrQLenPdf::58                      0                       # What write queue length does an incoming req see
system.mem_ctrls.wrQLenPdf::59                      0                       # What write queue length does an incoming req see
system.mem_ctrls.wrQLenPdf::60                      0                       # What write queue length does an incoming req see
system.mem_ctrls.wrQLenPdf::61                      0                       # What write queue length does an incoming req see
system.mem_ctrls.wrQLenPdf::62                      0                       # What write queue length does an incoming req see
system.mem_ctrls.wrQLenPdf::63                      0                       # What write queue length does an incoming req see
system.mem_ctrls.bytesPerActivate::samples        14405                       # Bytes accessed per row activation
system.mem_ctrls.bytesPerActivate::mean    206.261715                       # Bytes accessed per row activation
system.mem_ctrls.bytesPerActivate::gmean   170.047196                       # Bytes accessed per row activation
system.mem_ctrls.bytesPerActivate::stdev   156.479286                       # Bytes accessed per row activation
system.mem_ctrls.bytesPerActivate::0-127         2049     14.22%     14.22% # Bytes accessed per row activation
system.mem_ctrls.bytesPerActivate::128-255         8677     60.24%     74.46% # Bytes accessed per row activation
system.mem_ctrls.bytesPerActivate::256-383         2126     14.76%     89.22% # Bytes accessed per row activation
system.mem_ctrls.bytesPerActivate::384-511          785      5.45%     94.67% # Bytes accessed per row activation
system.mem_ctrls.bytesPerActivate::512-639          414      2.87%     97.54% # Bytes accessed per row activation
system.mem_ctrls.bytesPerActivate::640-767           50      0.35%     97.89% # Bytes accessed per row activation
system.mem_ctrls.bytesPerActivate::768-895           43      0.30%     98.19% # Bytes accessed per row activation
system.mem_ctrls.bytesPerActivate::896-1023           61      0.42%     98.61% # Bytes accessed per row activation
system.mem_ctrls.bytesPerActivate::1024-1151          200      1.39%    100.00% # Bytes accessed per row activation
system.mem_ctrls.bytesPerActivate::total        14405                       # Bytes accessed per row activation
system.mem_ctrls.rdPerTurnAround::samples          364                       # Reads before turning the bus around for writes
system.mem_ctrls.rdPerTurnAround::mean     109.505495                       # Reads before turning the bus around for writes
system.mem_ctrls.rdPerTurnAround::gmean     20.066855                       # Reads before turning the bus around for writes
system.mem_ctrls.rdPerTurnAround::stdev   1490.069587                       # Reads before turning the bus around for writes
system.mem_ctrls.rdPerTurnAround::0-1023          362     99.45%     99.45% # Reads before turning the bus around for writes
system.mem_ctrls.rdPerTurnAround::1024-2047            1      0.27%     99.73% # Reads before turning the bus around for writes
[...]
system.cpu.icache.ReadReq_mshr_misses::total      1206006                       # number of ReadReq MSHR misses
system.cpu.icache.ReadReq_mshr_miss_latency::.cpu.inst  14506435000                       # number of ReadReq MSHR miss cycles
system.cpu.icache.ReadReq_mshr_miss_latency::total  14506435000                       # number of ReadReq MSHR miss cycles
system.cpu.icache.ReadReq_mshr_miss_rate::.cpu.inst     0.042936                       # mshr miss rate for ReadReq accesses
system.cpu.icache.ReadReq_mshr_miss_rate::total     0.042936                       # mshr miss rate for ReadReq accesses
system.cpu.icache.ReadReq_avg_mshr_miss_latency::.cpu.inst 12028.493225                       # average ReadReq mshr miss latency
system.cpu.icache.ReadReq_avg_mshr_miss_latency::total 12028.493225                       # average ReadReq mshr miss latency
system.cpu.icache.tags.pwrStateResidencyTicks::UNDEFINED  70115797500                       # Cumulative time (in ticks) in various power states
system.cpu.icache.tags.tagsinuse           245.931043                       # Cycle average of tags in use
system.cpu.icache.tags.total_refs            28088257                       # Total number of references to valid blocks.
system.cpu.icache.tags.sampled_refs           1206005                       # Sample count of references to valid blocks.
system.cpu.icache.tags.avg_refs             23.290332                       # Average number of references to valid blocks.
system.cpu.icache.tags.warmup_cycle             87500                       # Cycle when the warmup percentage was hit.
system.cpu.icache.tags.occ_blocks::.cpu.inst   245.931043                       # Average occupied blocks per requestor
system.cpu.icache.tags.occ_percent::.cpu.inst     0.960668                       # Average percentage of cache occupancy
system.cpu.icache.tags.occ_percent::total     0.960668                       # Average percentage of cache occupancy
system.cpu.icache.tags.occ_task_id_blocks::1024          246                       # Occupied blocks per task id
system.cpu.icache.tags.age_task_id_blocks_1024::0           16                       # Occupied blocks per task id
system.cpu.icache.tags.age_task_id_blocks_1024::2           24                       # Occupied blocks per task id
system.cpu.icache.tags.age_task_id_blocks_1024::4          206                       # Occupied blocks per task id
system.cpu.icache.tags.occ_task_id_percent::1024     0.960938                       # Percentage of cache occupancy per task id
system.cpu.icache.tags.tag_accesses          57382521                       # Number of tag accesses
system.cpu.icache.tags.data_accesses         57382521                       # Number of data accesses
system.cpu.dtb.walker.pwrStateResidencyTicks::UNDEFINED  70115797500                       # Cumulative time (in ticks) in various power states
system.cpu.dtb.stage2_mmu.stage2_tlb.walker.pwrStateResidencyTicks::UNDEFINED  70115797500                       # Cumulative time (in ticks) in various power states
system.cpu.dcache.pwrStateResidencyTicks::UNDEFINED  70115797500                       # Cumulative time (in ticks) in various power states
system.cpu.dcache.demand_hits::.cpu.data     35656624                       # number of demand (read+write) hits
system.cpu.dcache.demand_hits::total         35656624                       # number of demand (read+write) hits
system.cpu.dcache.overall_hits::.cpu.data     35659951                       # number of overall hits
system.cpu.dcache.overall_hits::total        35659951                       # number of overall hits
system.cpu.dcache.demand_misses::.cpu.data        75305                       # number of demand (read+write) misses
system.cpu.dcache.demand_misses::total          75305                       # number of demand (read+write) misses
system.cpu.dcache.overall_misses::.cpu.data        75339                       # number of overall misses
system.cpu.dcache.overall_misses::total         75339                       # number of overall misses
system.cpu.dcache.demand_miss_latency::.cpu.data   4472626500                       # number of demand (read+write) miss cycles
system.cpu.dcache.demand_miss_latency::total   4472626500                       # number of demand (read+write) miss cycles
system.cpu.dcache.overall_miss_latency::.cpu.data   4472626500                       # number of overall miss cycles
system.cpu.dcache.overall_miss_latency::total   4472626500                       # number of overall miss cycles
system.cpu.dcache.demand_accesses::.cpu.data     35731929                       # number of demand (read+write) accesses
system.cpu.dcache.demand_accesses::total     35731929                       # number of demand (read+write) accesses
system.cpu.dcache.overall_accesses::.cpu.data     35735290                       # number of overall (read+write) accesses
system.cpu.dcache.overall_accesses::total     35735290                       # number of overall (read+write) accesses
system.cpu.dcache.demand_miss_rate::.cpu.data     0.002107                       # miss rate for demand accesses
system.cpu.dcache.demand_miss_rate::total     0.002107                       # miss rate for demand accesses
system.cpu.dcache.overall_miss_rate::.cpu.data     0.002108                       # miss rate for overall accesses
system.cpu.dcache.overall_miss_rate::total     0.002108                       # miss rate for overall accesses
system.cpu.dcache.demand_avg_miss_latency::.cpu.data 59393.486488                       # average overall miss latency
system.cpu.dcache.demand_avg_miss_latency::total 59393.486488                       # average overall miss latency
system.cpu.dcache.overall_avg_miss_latency::.cpu.data 59366.682595                       # average overall miss latency
system.cpu.dcache.overall_avg_miss_latency::total 59366.682595                       # average overall miss latency
system.cpu.dcache.blocked_cycles::no_mshrs            0                       # number of cycles access was blocked
system.cpu.dcache.blocked_cycles::no_targets            0                       # number of cycles access was blocked
system.cpu.dcache.blocked::no_mshrs                 0                       # number of cycles access was blocked
system.cpu.dcache.blocked::no_targets               0                       # number of cycles access was blocked
system.cpu.dcache.avg_blocked_cycles::no_mshrs          nan                       # average number of cycles each access was blocked
system.cpu.dcache.avg_blocked_cycles::no_targets          nan                       # average number of cycles each access was blocked
system.cpu.dcache.writebacks::.writebacks        50524                       # number of writebacks
system.cpu.dcache.writebacks::total             50524                       # number of writebacks
system.cpu.dcache.demand_mshr_hits::.cpu.data        19858                       # number of demand (read+write) MSHR hits
system.cpu.dcache.demand_mshr_hits::total        19858                       # number of demand (read+write) MSHR hits
system.cpu.dcache.overall_mshr_hits::.cpu.data        19858                       # number of overall MSHR hits
system.cpu.dcache.overall_mshr_hits::total        19858                       # number of overall MSHR hits
system.cpu.dcache.demand_mshr_misses::.cpu.data        55447                       # number of demand (read+write) MSHR misses
system.cpu.dcache.demand_mshr_misses::total        55447                       # number of demand (read+write) MSHR misses
system.cpu.dcache.overall_mshr_misses::.cpu.data        55476                       # number of overall MSHR misses
system.cpu.dcache.overall_mshr_misses::total        55476                       # number of overall MSHR misses
system.cpu.dcache.demand_mshr_miss_latency::.cpu.data   3309082500                       # number of demand (read+write) MSHR miss cycles
system.cpu.dcache.demand_mshr_miss_latency::total   3309082500                       # number of demand (read+write) MSHR miss cycles
system.cpu.dcache.overall_mshr_miss_latency::.cpu.data   3310287500                       # number of overall MSHR miss cycles
system.cpu.dcache.overall_mshr_miss_latency::total   3310287500                       # number of overall MSHR miss cycles
system.cpu.dcache.demand_mshr_miss_rate::.cpu.data     0.001552                       # mshr miss rate for demand accesses
system.cpu.dcache.demand_mshr_miss_rate::total     0.001552                       # mshr miss rate for demand accesses
system.cpu.dcache.overall_mshr_miss_rate::.cpu.data     0.001552                       # mshr miss rate for overall accesses
system.cpu.dcache.overall_mshr_miss_rate::total     0.001552                       # mshr miss rate for overall accesses
system.cpu.dcache.demand_avg_mshr_miss_latency::.cpu.data 59680.099915                       # average overall mshr miss latency
system.cpu.dcache.demand_avg_mshr_miss_latency::total 59680.099915                       # average overall mshr miss latency
system.cpu.dcache.overall_avg_mshr_miss_latency::.cpu.data 59670.623333                       # average overall mshr miss latency
system.cpu.dcache.overall_avg_mshr_miss_latency::total 59670.623333                       # average overall mshr miss latency
system.cpu.dcache.replacements                  54452                       # number of replacements
system.cpu.dcache.ReadReq_hits::.cpu.data     21457440                       # number of ReadReq hits
system.cpu.dcache.ReadReq_hits::total        21457440                       # number of ReadReq hits
system.cpu.dcache.ReadReq_misses::.cpu.data        19738                       # number of ReadReq misses
system.cpu.dcache.ReadReq_misses::total         19738                       # number of ReadReq misses
system.cpu.dcache.ReadReq_miss_latency::.cpu.data    309283500                       # number of ReadReq miss cycles
system.cpu.dcache.ReadReq_miss_latency::total    309283500                       # number of ReadReq miss cycles
system.cpu.dcache.ReadReq_accesses::.cpu.data     21477178                       # number of ReadReq accesses(hits+misses)
system.cpu.dcache.ReadReq_accesses::total     21477178                       # number of ReadReq accesses(hits+misses)
system.cpu.dcache.ReadReq_miss_rate::.cpu.data     0.000919                       # miss rate for ReadReq accesses
system.cpu.dcache.ReadReq_miss_rate::total     0.000919                       # miss rate for ReadReq accesses
system.cpu.dcache.ReadReq_avg_miss_latency::.cpu.data 15669.444726                       # average ReadReq miss latency
system.cpu.dcache.ReadReq_avg_miss_latency::total 15669.444726                       # average ReadReq miss latency
system.cpu.dcache.ReadReq_mshr_hits::.cpu.data         3226                       # number of ReadReq MSHR hits
system.cpu.dcache.ReadReq_mshr_hits::total         3226                       # number of ReadReq MSHR hits
system.cpu.dcache.ReadReq_mshr_misses::.cpu.data        16512                       # number of ReadReq MSHR misses
system.cpu.dcache.ReadReq_mshr_misses::total        16512                       # number of ReadReq MSHR misses
system.cpu.dcache.ReadReq_mshr_miss_latency::.cpu.data    239107000                       # number of ReadReq MSHR miss cycles
system.cpu.dcache.ReadReq_mshr_miss_latency::total    239107000                       # number of ReadReq MSHR miss cycles
system.cpu.dcache.ReadReq_mshr_miss_rate::.cpu.data     0.000769                       # mshr miss rate for ReadReq accesses
system.cpu.dcache.ReadReq_mshr_miss_rate::total     0.000769                       # mshr miss rate for ReadReq accesses
system.cpu.dcache.ReadReq_avg_mshr_miss_latency::.cpu.data 14480.801841                       # average ReadReq mshr miss latency
system.cpu.dcache.ReadReq_avg_mshr_miss_latency::total 14480.801841                       # average ReadReq mshr miss latency
system.cpu.dcache.WriteReq_hits::.cpu.data     14199184                       # number of WriteReq hits
system.cpu.dcache.WriteReq_hits::total       14199184                       # number of WriteReq hits
system.cpu.dcache.WriteReq_misses::.cpu.data        55567                       # number of WriteReq misses
system.cpu.dcache.WriteReq_misses::total        55567                       # number of WriteReq misses
system.cpu.dcache.WriteReq_miss_latency::.cpu.data   4163343000                       # number of WriteReq miss cycles
system.cpu.dcache.WriteReq_miss_latency::total   4163343000                       # number of WriteReq miss cycles
system.cpu.dcache.WriteReq_accesses::.cpu.data     14254751                       # number of WriteReq accesses(hits+misses)
system.cpu.dcache.WriteReq_accesses::total     14254751                       # number of WriteReq accesses(hits+misses)
system.cpu.dcache.WriteReq_miss_rate::.cpu.data     0.003898                       # miss rate for WriteReq accesses
system.cpu.dcache.WriteReq_miss_rate::total     0.003898                       # miss rate for WriteReq accesses
system.cpu.dcache.WriteReq_avg_miss_latency::.cpu.data 74924.739504                       # average WriteReq miss latency
system.cpu.dcache.WriteReq_avg_miss_latency::total 74924.739504                       # average WriteReq miss latency
system.cpu.dcache.WriteReq_mshr_hits::.cpu.data        16632                       # number of WriteReq MSHR hits
system.cpu.dcache.WriteReq_mshr_hits::total        16632                       # number of WriteReq MSHR hits
system.cpu.dcache.WriteReq_mshr_misses::.cpu.data        38935                       # number of WriteReq MSHR misses
system.cpu.dcache.WriteReq_mshr_misses::total        38935                       # number of WriteReq MSHR misses
system.cpu.dcache.WriteReq_mshr_miss_latency::.cpu.data   3069975500                       # number of WriteReq MSHR miss cycles
system.cpu.dcache.WriteReq_mshr_miss_latency::total   3069975500                       # number of WriteReq MSHR miss cycles
system.cpu.dcache.WriteReq_mshr_miss_rate::.cpu.data     0.002731                       # mshr miss rate for WriteReq accesses
system.cpu.dcache.WriteReq_mshr_miss_rate::total     0.002731                       # mshr miss rate for WriteReq accesses
system.cpu.dcache.WriteReq_avg_mshr_miss_latency::.cpu.data 78848.735071                       # average WriteReq mshr miss latency
system.cpu.dcache.WriteReq_avg_mshr_miss_latency::total 78848.735071                       # average WriteReq mshr miss latency
system.cpu.dcache.SoftPFReq_hits::.cpu.data         3327                       # number of SoftPFReq hits
system.cpu.dcache.SoftPFReq_hits::total          3327                       # number of SoftPFReq hits
system.cpu.dcache.SoftPFReq_misses::.cpu.data           34                       # number of SoftPFReq misses
system.cpu.dcache.SoftPFReq_misses::total           34                       # number of SoftPFReq misses
system.cpu.dcache.SoftPFReq_accesses::.cpu.data         3361                       # number of SoftPFReq accesses(hits+misses)
system.cpu.dcache.SoftPFReq_accesses::total         3361                       # number of SoftPFReq accesses(hits+misses)
system.cpu.dcache.SoftPFReq_miss_rate::.cpu.data     0.010116                       # miss rate for SoftPFReq accesses
system.cpu.dcache.SoftPFReq_miss_rate::total     0.010116                       # miss rate for SoftPFReq accesses
system.cpu.dcache.SoftPFReq_mshr_misses::.cpu.data           29                       # number of SoftPFReq MSHR misses
system.cpu.dcache.SoftPFReq_mshr_misses::total           29                       # number of SoftPFReq MSHR misses
system.cpu.dcache.SoftPFReq_mshr_miss_latency::.cpu.data      1205000                       # number of SoftPFReq MSHR miss cycles
system.cpu.dcache.SoftPFReq_mshr_miss_latency::total      1205000                       # number of SoftPFReq MSHR miss cycles
system.cpu.dcache.SoftPFReq_mshr_miss_rate::.cpu.data     0.008628                       # mshr miss rate for SoftPFReq accesses
system.cpu.dcache.SoftPFReq_mshr_miss_rate::total     0.008628                       # mshr miss rate for SoftPFReq accesses
system.cpu.dcache.SoftPFReq_avg_mshr_miss_latency::.cpu.data 41551.724138                       # average SoftPFReq mshr miss latency
system.cpu.dcache.SoftPFReq_avg_mshr_miss_latency::total 41551.724138                       # average SoftPFReq mshr miss latency
system.cpu.dcache.LoadLockedReq_hits::.cpu.data        89082                       # number of LoadLockedReq hits
system.cpu.dcache.LoadLockedReq_hits::total        89082                       # number of LoadLockedReq hits
system.cpu.dcache.LoadLockedReq_accesses::.cpu.data        89082                       # number of LoadLockedReq accesses(hits+misses)
system.cpu.dcache.LoadLockedReq_accesses::total        89082                       # number of LoadLockedReq accesses(hits+misses)
system.cpu.dcache.StoreCondReq_hits::.cpu.data        89082                       # number of StoreCondReq hits
system.cpu.dcache.StoreCondReq_hits::total        89082                       # number of StoreCondReq hits
system.cpu.dcache.StoreCondReq_accesses::.cpu.data        89082                       # number of StoreCondReq accesses(hits+misses)
system.cpu.dcache.StoreCondReq_accesses::total        89082                       # number of StoreCondReq accesses(hits+misses)
system.cpu.dcache.tags.pwrStateResidencyTicks::UNDEFINED  70115797500                       # Cumulative time (in ticks) in various power states
system.cpu.dcache.tags.tagsinuse          1020.323113                       # Cycle average of tags in use
system.cpu.dcache.tags.total_refs            35893591                       # Total number of references to valid blocks.
system.cpu.dcache.tags.sampled_refs             55476                       # Sample count of references to valid blocks.
system.cpu.dcache.tags.avg_refs            647.011158                       # Average number of references to valid blocks.
system.cpu.dcache.tags.warmup_cycle            195500                       # Cycle when the warmup percentage was hit.
system.cpu.dcache.tags.occ_blocks::.cpu.data  1020.323113                       # Average occupied blocks per requestor
system.cpu.dcache.tags.occ_percent::.cpu.data     0.996409                       # Average percentage of cache occupancy
system.cpu.dcache.tags.occ_percent::total     0.996409                       # Average percentage of cache occupancy
system.cpu.dcache.tags.occ_task_id_blocks::1024         1024                       # Occupied blocks per task id
system.cpu.dcache.tags.age_task_id_blocks_1024::0            4                       # Occupied blocks per task id
system.cpu.dcache.tags.age_task_id_blocks_1024::1           48                       # Occupied blocks per task id
system.cpu.dcache.tags.age_task_id_blocks_1024::2          419                       # Occupied blocks per task id
system.cpu.dcache.tags.age_task_id_blocks_1024::3          515                       # Occupied blocks per task id
system.cpu.dcache.tags.age_task_id_blocks_1024::4           38                       # Occupied blocks per task id
system.cpu.dcache.tags.occ_task_id_percent::1024            1                       # Percentage of cache occupancy per task id
system.cpu.dcache.tags.tag_accesses          71882384                       # Number of tag accesses
system.cpu.dcache.tags.data_accesses         71882384                       # Number of data accesses
system.cpu.itb.walker.pwrStateResidencyTicks::UNDEFINED  70115797500                       # Cumulative time (in ticks) in various power states
system.cpu.itb.stage2_mmu.stage2_tlb.walker.pwrStateResidencyTicks::UNDEFINED  70115797500                       # Cumulative time (in ticks) in various power states

---------- End Simulation Statistics   ----------
