
---------- Begin Simulation Statistics ----------
final_tick                                92629038500                       # Number of ticks from beginning of simulation (restored from checkpoints and never reset)
host_inst_rate                                 389084                       # Simulator instruction rate (inst/s)
host_mem_usage                                 700348                       # Number of bytes of host memory used
host_op_rate                                   389848                       # Simulator op (including micro ops) rate (op/s)
host_seconds                                   257.01                       # Real time elapsed on the host
host_tick_rate                              360404420                       # Simulator tick rate (ticks/s)
sim_freq                                 1000000000000                       # Frequency of simulated ticks
sim_insts                                   100000001                       # Number of instructions simulated
sim_ops                                     100196363                       # Number of ops (including micro ops) simulated
sim_seconds                                  0.092629                       # Number of seconds simulated
sim_ticks                                 92629038500                       # Number of ticks simulated
system.cpu.branchPred.BTBCorrect                    0                       # Number of correct BTB predictions (this stat may not work properly.
system.cpu.branchPred.BTBHitPct             99.708572                       # BTB Hit Percentage
system.cpu.branchPred.BTBHits                 2093543                       # Number of BTB hits
system.cpu.branchPred.BTBLookups              2099662                       # Number of BTB lookups
system.cpu.branchPred.RASInCorrect                  5                       # Number of incorrect RAS predictions.
system.cpu.branchPred.condIncorrect             81339                       # Number of conditional branches incorrect
system.cpu.branchPred.condPredicted           3725338                       # Number of conditional branches predicted
system.cpu.branchPred.indirectHits                292                       # Number of indirect target hits.
system.cpu.branchPred.indirectLookups             791                       # Number of indirect predictor lookups.
system.cpu.branchPred.indirectMisses              499                       # Number of indirect misses.
system.cpu.branchPred.lookups                 4475039                       # Number of BP lookups
system.cpu.branchPred.usedRAS                   65321                       # Number of times the RAS was used to get a target.
system.cpu.branchPredindirectMispredicted          171                       # Number of mispredicted indirect branches.
system.cpu.committedInsts                   100000001                       # Number of instructions committed
system.cpu.committedOps                     100196363                       # Number of ops (including micro ops) committed
system.cpu.cpi                               1.852581                       # CPI: cycles per instruction
system.cpu.discardedOps                        190504                       # Number of ops (including micro ops) which were discarded before commit
system.cpu.dtb.accesses                             0                       # DTB accesses
system.cpu.dtb.align_faults                         0                       # Number of TLB faults due to alignment restrictions
system.cpu.dtb.domain_faults                        0                       # Number of TLB faults due to domain restrictions
system.cpu.dtb.flush_entries                        0                       # Number of entries that have been flushed from TLB
system.cpu.dtb.flush_tlb                            0                       # Number of times complete TLB was flushed
system.cpu.dtb.flush_tlb_asid                       0                       # Number of times TLB was flushed by ASID
system.cpu.dtb.flush_tlb_mva                        0                       # Number of times TLB was flushed by MVA
system.cpu.dtb.flush_tlb_mva_asid                   0                       # Number of times TLB was flushed by MVA & ASID
system.cpu.dtb.hits                                 0                       # DTB hits
system.cpu.dtb.inst_accesses                        0                       # ITB inst accesses
system.cpu.dtb.inst_hits                            0                       # ITB inst hits
system.cpu.dtb.inst_misses                          0                       # ITB inst misses
system.cpu.dtb.misses                               0                       # DTB misses
system.cpu.dtb.perms_faults                         0                       # Number of TLB faults due to permissions restrictions
system.cpu.dtb.prefetch_faults                      0                       # Number of TLB faults due to prefetch
system.cpu.dtb.read_accesses                        0                       # DTB read accesses
system.cpu.dtb.read_hits                            0                       # DTB read hits
system.cpu.dtb.read_misses                          0                       # DTB read misses
system.cpu.dtb.stage2_mmu.stage2_tlb.accesses            0                       # DTB accesses
system.cpu.dtb.stage2_mmu.stage2_tlb.align_faults            0                       # Number of TLB faults due to alignment restrictions
system.cpu.dtb.stage2_mmu.stage2_tlb.domain_faults            0                       # Number of TLB faults due to domain restrictions
system.cpu.dtb.stage2_mmu.stage2_tlb.flush_entries            0                       # Number of entries that have been flushed from TLB
system.cpu.dtb.stage2_mmu.stage2_tlb.flush_tlb            0                       # Number of times complete TLB was flushed
system.cpu.dtb.stage2_mmu.stage2_tlb.flush_tlb_asid            0                       # Number of times TLB was flushed by ASID
system.cpu.dtb.stage2_mmu.stage2_tlb.flush_tlb_mva            0                       # Number of times TLB was flushed by MVA
system.cpu.dtb.stage2_mmu.stage2_tlb.flush_tlb_mva_asid            0                       # Number of times TLB was flushed by MVA & ASID
system.cpu.dtb.stage2_mmu.stage2_tlb.hits            0                       # DTB hits
system.cpu.dtb.stage2_mmu.stage2_tlb.inst_accesses            0                       # ITB inst accesses
system.cpu.dtb.stage2_mmu.stage2_tlb.inst_hits            0                       # ITB inst hits
system.cpu.dtb.stage2_mmu.stage2_tlb.inst_misses            0                       # ITB inst misses
system.cpu.dtb.stage2_mmu.stage2_tlb.misses            0                       # DTB misses
system.cpu.dtb.stage2_mmu.stage2_tlb.perms_faults            0                       # Number of TLB faults due to permissions restrictions
system.cpu.dtb.stage2_mmu.stage2_tlb.prefetch_faults            0                       # Number of TLB faults due to prefetch
system.cpu.dtb.stage2_mmu.stage2_tlb.read_accesses            0                       # DTB read accesses
system.cpu.dtb.stage2_mmu.stage2_tlb.read_hits            0                       # DTB read hits
system.cpu.dtb.stage2_mmu.stage2_tlb.read_misses            0                       # DTB read misses
system.cpu.dtb.stage2_mmu.stage2_tlb.walker.walkRequestOrigin_Requested::Data            0                       # Table walker requests started/completed, data/inst
system.cpu.dtb.stage2_mmu.stage2_tlb.walker.walkRequestOrigin_Requested::Inst            0                       # Table walker requests started/completed, data/inst
system.cpu.dtb.stage2_mmu.stage2_tlb.walker.walkRequestOrigin_Requested::total            0                       # Table walker requests started/completed, data/inst
system.cpu.dtb.stage2_mmu.stage2_tlb.walker.walkRequestOrigin_Completed::Data            0                       # Table walker requests started/completed, data/inst
system.cpu.dtb.stage2_mmu.stage2_tlb.walker.walkRequestOrigin_Completed::Inst            0                       # Table walker requests started/completed, data/inst
system.cpu.dtb.stage2_mmu.stage2_tlb.walker.walkRequestOrigin_Completed::total            0                       # Table walker requests started/completed, data/inst
system.cpu.dtb.stage2_mmu.stage2_tlb.walker.walkRequestOrigin::total            0                       # Table walker requests started/completed, data/inst
system.cpu.dtb.stage2_mmu.stage2_tlb.walker.walks            0                       # Table walker walks requested
system.cpu.dtb.stage2_mmu.stage2_tlb.write_accesses            0                       # DTB write accesses
system.cpu.dtb.stage2_mmu.stage2_tlb.write_hits            0                       # DTB write hits
system.cpu.dtb.stage2_mmu.stage2_tlb.write_misses            0                       # DTB write misses
system.cpu.dtb.walker.walkRequestOrigin_Requested::Data            0                       # Table walker requests started/completed, data/inst
system.cpu.dtb.walker.walkRequestOrigin_Requested::Inst            0                       # Table walker requests started/completed, data/inst
system.cpu.dtb.walker.walkRequestOrigin_Requested::total            0                       # Table walker requests started/completed, data/inst
system.cpu.dtb.walker.walkRequestOrigin_Completed::Data            0                       # Table walker requests started/completed, data/inst
system.cpu.dtb.walker.walkRequestOrigin_Completed::Inst            0                       # Table walker requests started/completed, data/inst
system.cpu.dtb.walker.walkRequestOrigin_Completed::total            0                       # Table walker requests started/completed, data/inst
system.cpu.dtb.walker.walkRequestOrigin::total            0                       # Table walker requests started/completed, data/inst
system.cpu.dtb.walker.walks                         0                       # Table walker walks requested
system.cpu.dtb.write_accesses                       0                       # DTB write accesses
system.cpu.dtb.write_hits                           0                       # DTB write hits
system.cpu.dtb.write_misses                         0                       # DTB write misses
system.cpu.fetch2.amo_instructions                  0                       # Number of memory atomic instructions successfully decoded
system.cpu.fetch2.fp_instructions                   0                       # Number of floating point instructions successfully decoded
system.cpu.fetch2.int_instructions           42606824                       # Number of integer instructions successfully decoded
system.cpu.fetch2.load_instructions          43399512                       # Number of memory load instructions successfully decoded
system.cpu.fetch2.store_instructions         10999351                       # Number of memory store instructions successfully decoded
system.cpu.fetch2.vec_instructions                  0                       # Number of SIMD instructions successfully decoded
system.cpu.idleCycles                        51950575                       # Total number of cycles that the object has spent stopped
system.cpu.ipc                               0.539788                       # IPC: instructions per cycle
system.cpu.itb.accesses                             0                       # DTB accesses
system.cpu.itb.align_faults                         0                       # Number of TLB faults due to alignment restrictions
system.cpu.itb.domain_faults                        0                       # Number of TLB faults due to domain restrictions
system.cpu.itb.flush_entries                        0                       # Number of entries that have been flushed from TLB
system.cpu.itb.flush_tlb                            0                       # Number of times complete TLB was flushed
system.cpu.itb.flush_tlb_asid                       0                       # Number of times TLB was flushed by ASID
system.cpu.itb.flush_tlb_mva                        0                       # Number of times TLB was flushed by MVA
system.cpu.itb.flush_tlb_mva_asid                   0                       # Number of times TLB was flushed by MVA & ASID
system.cpu.itb.hits                                 0                       # DTB hits
system.cpu.itb.inst_accesses                        0                       # ITB inst accesses
system.cpu.itb.inst_hits                            0                       # ITB inst hits
system.cpu.itb.inst_misses                          0                       # ITB inst misses
system.cpu.itb.misses                               0                       # DTB misses
system.cpu.itb.perms_faults                         0                       # Number of TLB faults due to permissions restrictions
system.cpu.itb.prefetch_faults                      0                       # Number of TLB faults due to prefetch
system.cpu.itb.read_accesses                        0                       # DTB read accesses
system.cpu.itb.read_hits                            0                       # DTB read hits
system.cpu.itb.read_misses                          0                       # DTB read misses
system.cpu.itb.stage2_mmu.stage2_tlb.accesses            0                       # DTB accesses
system.cpu.itb.stage2_mmu.stage2_tlb.align_faults            0                       # Number of TLB faults due to alignment restrictions
system.cpu.itb.stage2_mmu.stage2_tlb.domain_faults            0                       # Number of TLB faults due to domain restrictions
system.cpu.itb.stage2_mmu.stage2_tlb.flush_entries            0                       # Number of entries that have been flushed from TLB
system.cpu.itb.stage2_mmu.stage2_tlb.flush_tlb            0                       # Number of times complete TLB was flushed
system.cpu.itb.stage2_mmu.stage2_tlb.flush_tlb_asid            0                       # Number of times TLB was flushed by ASID
system.cpu.itb.stage2_mmu.stage2_tlb.flush_tlb_mva            0                       # Number of times TLB was flushed by MVA
system.cpu.itb.stage2_mmu.stage2_tlb.flush_tlb_mva_asid            0                       # Number of times TLB was flushed by MVA & ASID
system.cpu.itb.stage2_mmu.stage2_tlb.hits            0                       # DTB hits
system.cpu.itb.stage2_mmu.stage2_tlb.inst_accesses            0                       # ITB inst accesses
system.cpu.itb.stage2_mmu.stage2_tlb.inst_hits            0                       # ITB inst hits
system.cpu.itb.stage2_mmu.stage2_tlb.inst_misses            0                       # ITB inst misses
system.cpu.itb.stage2_mmu.stage2_tlb.misses            0                       # DTB misses
system.cpu.itb.stage2_mmu.stage2_tlb.perms_faults            0                       # Number of TLB faults due to permissions restrictions
system.cpu.itb.stage2_mmu.stage2_tlb.prefetch_faults            0                       # Number of TLB faults due to prefetch
system.cpu.itb.stage2_mmu.stage2_tlb.read_accesses            0                       # DTB read accesses
system.cpu.itb.stage2_mmu.stage2_tlb.read_hits            0                       # DTB read hits
system.cpu.itb.stage2_mmu.stage2_tlb.read_misses            0                       # DTB read misses
system.cpu.itb.stage2_mmu.stage2_tlb.walker.walkRequestOrigin_Requested::Data            0                       # Table walker requests started/completed, data/inst
system.cpu.itb.stage2_mmu.stage2_tlb.walker.walkRequestOrigin_Requested::Inst            0                       # Table walker requests started/completed, data/inst
system.cpu.itb.stage2_mmu.stage2_tlb.walker.walkRequestOrigin_Requested::total            0                       # Table walker requests started/completed, data/inst
system.cpu.itb.stage2_mmu.stage2_tlb.walker.walkRequestOrigin_Completed::Data            0                       # Table walker requests started/completed, data/inst
system.cpu.itb.stage2_mmu.stage2_tlb.walker.walkRequestOrigin_Completed::Inst            0                       # Table walker requests started/completed, data/inst
system.cpu.itb.stage2_mmu.stage2_tlb.walker.walkRequestOrigin_Completed::total            0                       # Table walker requests started/completed, data/inst
system.cpu.itb.stage2_mmu.stage2_tlb.walker.walkRequestOrigin::total            0                       # Table walker requests started/completed, data/inst
system.cpu.itb.stage2_mmu.stage2_tlb.walker.walks            0                       # Table walker walks requested
system.cpu.itb.stage2_mmu.stage2_tlb.write_accesses            0                       # DTB write accesses
system.cpu.itb.stage2_mmu.stage2_tlb.write_hits            0                       # DTB write hits
system.cpu.itb.stage2_mmu.stage2_tlb.write_misses            0                       # DTB write misses
system.cpu.itb.walker.walkRequestOrigin_Requested::Data            0                       # Table walker requests started/completed, data/inst
system.cpu.itb.walker.walkRequestOrigin_Requested::Inst            0                       # Table walker requests started/completed, data/inst
system.cpu.itb.walker.walkRequestOrigin_Requested::total            0                       # Table walker requests started/completed, data/inst
system.cpu.itb.walker.walkRequestOrigin_Completed::Data            0                       # Table walker requests started/completed, data/inst
system.cpu.itb.walker.walkRequestOrigin_Completed::Inst            0                       # Table walker requests started/completed, data/inst
system.cpu.itb.walker.walkRequestOrigin_Completed::total            0                       # Table walker requests started/completed, data/inst
system.cpu.itb.walker.walkRequestOrigin::total            0                       # Table walker requests started/completed, data/inst
system.cpu.itb.walker.walks                         0                       # Table walker walks requested
system.cpu.itb.write_accesses                       0                       # DTB write accesses
system.cpu.itb.write_hits                           0                       # DTB write hits
system.cpu.itb.write_misses                         0                       # DTB write misses
system.cpu.numCycles                        185258077                       # number of cpu cycles simulated
system.cpu.numFetchSuspends                         0                       # Number of times Execute suspended instruction fetching
system.cpu.numWorkItemsCompleted                    0                       # number of work items this cpu completed
system.cpu.numWorkItemsStarted                      0                       # number of work items this cpu started
system.cpu.op_class_0::No_OpClass                   0      0.00%      0.00% # Class of committed instruction
system.cpu.op_class_0::IntAlu                46531400     46.44%     46.44% # Class of committed instruction
system.cpu.op_class_0::IntMult                  20720      0.02%     46.46% # Class of committed instruction
system.cpu.op_class_0::IntDiv                       0      0.00%     46.46% # Class of committed instruction
system.cpu.op_class_0::FloatAdd                     0      0.00%     46.46% # Class of committed instruction
system.cpu.op_class_0::FloatCmp                     0      0.00%     46.46% # Class of committed instruction
system.cpu.op_class_0::FloatCvt                     0      0.00%     46.46% # Class of committed instruction
system.cpu.op_class_0::FloatMult                    0      0.00%     46.46% # Class of committed instruction
system.cpu.op_class_0::FloatMultAcc                 0      0.00%     46.46% # Class of committed instruction
system.cpu.op_class_0::FloatDiv                     0      0.00%     46.46% # Class of committed instruction
system.cpu.op_class_0::FloatMisc                    0      0.00%     46.46% # Class of committed instruction
system.cpu.op_class_0::FloatSqrt                    0      0.00%     46.46% # Class of committed instruction
system.cpu.op_class_0::SimdAdd                      0      0.00%     46.46% # Class of committed instruction
system.cpu.op_class_0::SimdAddAcc                   0      0.00%     46.46% # Class of committed instruction
system.cpu.op_class_0::SimdAlu                      0      0.00%     46.46% # Class of committed instruction
system.cpu.op_class_0::SimdCmp                      0      0.00%     46.46% # Class of committed instruction
system.cpu.op_class_0::SimdCvt                      0      0.00%     46.46% # Class of committed instruction
system.cpu.op_class_0::SimdMisc                     0      0.00%     46.46% # Class of committed instruction
system.cpu.op_class_0::SimdMult                     0      0.00%     46.46% # Class of committed instruction
system.cpu.op_class_0::SimdMultAcc                  0      0.00%     46.46% # Class of committed instruction
system.cpu.op_class_0::SimdShift                    0      0.00%     46.46% # Class of committed instruction
system.cpu.op_class_0::SimdShiftAcc                 0      0.00%     46.46% # Class of committed instruction
system.cpu.op_class_0::SimdDiv                      0      0.00%     46.46% # Class of committed instruction
system.cpu.op_class_0::SimdSqrt                     0      0.00%     46.46% # Class of committed instruction
system.cpu.op_class_0::SimdFloatAdd                 0      0.00%     46.46% # Class of committed instruction
system.cpu.op_class_0::SimdFloatAlu                 0      0.00%     46.46% # Class of committed instruction
system.cpu.op_class_0::SimdFloatCmp                 0      0.00%     46.46% # Class of committed instruction
system.cpu.op_class_0::SimdFloatCvt                 0      0.00%     46.46% # Class of committed instruction
system.cpu.op_class_0::SimdFloatDiv                 0      0.00%     46.46% # Class of committed instruction
system.cpu.op_class_0::SimdFloatMisc               18      0.00%     46.46% # Class of committed instruction
system.cpu.op_class_0::SimdFloatMult                0      0.00%     46.46% # Class of committed instruction
system.cpu.op_class_0::SimdFloatMultAcc             0      0.00%     46.46% # Class of committed instruction
system.cpu.op_class_0::SimdFloatSqrt                0      0.00%     46.46% # Class of committed instruction
system.cpu.op_class_0::SimdReduceAdd                0      0.00%     46.46% # Class of committed instruction
system.cpu.op_class_0::SimdReduceAlu                0      0.00%     46.46% # Class of committed instruction
system.cpu.op_class_0::SimdReduceCmp                0      0.00%     46.46% # Class of committed instruction
system.cpu.op_class_0::SimdFloatReduceAdd            0      0.00%     46.46% # Class of committed instruction
system.cpu.op_class_0::SimdFloatReduceCmp            0      0.00%     46.46% # Class of committed instruction
system.cpu.op_class_0::SimdAes                      0      0.00%     46.46% # Class of committed instruction
system.cpu.op_class_0::SimdAesMix                   0      0.00%     46.46% # Class of committed instruction
system.cpu.op_class_0::SimdSha1Hash                 0      0.00%     46.46% # Class of committed instruction
system.cpu.op_class_0::SimdSha1Hash2                0      0.00%     46.46% # Class of committed instruction
system.cpu.op_class_0::SimdSha256Hash               0      0.00%     46.46% # Class of committed instruction
system.cpu.op_class_0::SimdSha256Hash2              0      0.00%     46.46% # Class of committed instruction
system.cpu.op_class_0::SimdShaSigma2                0      0.00%     46.46% # Class of committed instruction
system.cpu.op_class_0::SimdShaSigma3                0      0.00%     46.46% # Class of committed instruction
system.cpu.op_class_0::SimdPredAlu                  0      0.00%     46.46% # Class of committed instruction
system.cpu.op_class_0::MemRead               42693601     42.61%     89.07% # Class of committed instruction
system.cpu.op_class_0::MemWrite              10950624     10.93%    100.00% # Class of committed instruction
system.cpu.op_class_0::FloatMemRead                 0      0.00%    100.00% # Class of committed instruction
system.cpu.op_class_0::FloatMemWrite                0      0.00%    100.00% # Class of committed instruction
system.cpu.op_class_0::IprAccess                    0      0.00%    100.00% # Class of committed instruction
system.cpu.op_class_0::InstPrefetch                 0      0.00%    100.00% # Class of committed instruction
system.cpu.op_class_0::total                100196363                       # Class of committed instruction
system.cpu.tickCycles                       133307502                       # Number of cycles that the object actually ticked
system.cpu.workload.numSyscalls                    84                       # Number of system calls
system.membus.snoop_filter.hit_multi_requests            0                       # Number of requests hitting in the snoop filter with multiple (>1) holders of the requested data.
system.membus.snoop_filter.hit_multi_snoops            0                       # Number of snoops hitting in the snoop filter with multiple (>1) holders of the requested data.
system.membus.snoop_filter.hit_single_requests       288452                       # Number of requests hitting in the snoop filter with a single holder of the requested data.
system.membus.snoop_filter.hit_single_snoops            0                       # Number of snoops hitting in the snoop filter with a single holder of the requested data.
system.membus.snoop_filter.tot_requests        643042                       # Total number of requests made to the snoop filter.
system.membus.snoop_filter.tot_snoops               0                       # Total number of snoops made to the snoop filter.
system.tol2bus.snoop_filter.hit_multi_requests          125                       # Number of requests hitting in the snoop filter with multiple (>1) holders of the requested data.
system.tol2bus.snoop_filter.hit_multi_snoops            0                       # Number of snoops hitting in the snoop filter with multiple (>1) holders of the requested data.
system.tol2bus.snoop_filter.hit_single_requests       826893                       # Number of requests hitting in the snoop filter with a single holder of the requested data.
system.tol2bus.snoop_filter.hit_single_snoops          765                       # Number of snoops hitting in the snoop filter with a single holder of the requested data.
system.tol2bus.snoop_filter.tot_requests      1656654                       # Total number of requests made to the snoop filter.
system.tol2bus.snoop_filter.tot_snoops            765                       # Total number of snoops made to the snoop filter.
system.membus.pwrStateResidencyTicks::UNDEFINED  92629038500                       # Cumulative time (in ticks) in various power states
system.membus.trans_dist::ReadResp             118750                       # Transaction distribution
system.membus.trans_dist::WritebackDirty       185466                       # Transaction distribution
system.membus.trans_dist::CleanEvict           102981                       # Transaction distribution
system.membus.trans_dist::ReadExReq            235845                       # Transaction distribution
system.membus.trans_dist::ReadExResp           235845                       # Transaction distribution
system.membus.trans_dist::ReadSharedReq        118750                       # Transaction distribution
system.membus.pkt_count_system.l2.mem_side::system.mem_ctrls.port       997637                       # Packet count per connected master and slave (bytes)
system.membus.pkt_count::total                 997637                       # Packet count per connected master and slave (bytes)
system.membus.pkt_size_system.l2.mem_side::system.mem_ctrls.port     17281952                       # Cumulative packet size per connected master and slave (bytes)
system.membus.pkt_size::total                17281952                       # Cumulative packet size per connected master and slave (bytes)
system.membus.snoops                                0                       # Total snoops (count)
system.membus.snoopTraffic                          0                       # Total snoop traffic (bytes)
system.membus.snoop_fanout::samples            354595                       # Request fanout histogram
system.membus.snoop_fanout::mean                    0                       # Request fanout histogram
system.membus.snoop_fanout::stdev                   0                       # Request fanout histogram
system.membus.snoop_fanout::underflows              0      0.00%      0.00% # Request fanout histogram
system.membus.snoop_fanout::0                  354595    100.00%    100.00% # Request fanout histogram
system.membus.snoop_fanout::1                       0      0.00%    100.00% # Request fanout histogram
system.membus.snoop_fanout::overflows               0      0.00%    100.00% # Request fanout histogram
system.membus.snoop_fanout::min_value               0                       # Request fanout histogram
system.membus.snoop_fanout::max_value               0                       # Request fanout histogram
system.membus.snoop_fanout::total              354595                       # Request fanout histogram
system.membus.respLayer1.occupancy         1194803500                       # Layer occupancy (ticks)
system.membus.respLayer1.utilization              1.3                       # Layer utilization (%)
system.membus.reqLayer0.occupancy          1101183000                       # Layer occupancy (ticks)
system.membus.reqLayer0.utilization               1.2                       # Layer utilization (%)
system.tol2bus.pwrStateResidencyTicks::UNDEFINED  92629038500                       # Cumulative time (in ticks) in various power states
system.tol2bus.trans_dist::ReadResp            484600                       # Transaction distribution
system.tol2bus.trans_dist::WritebackDirty       885183                       # Transaction distribution
system.tol2bus.trans_dist::WritebackClean          344                       # Transaction distribution
system.tol2bus.trans_dist::CleanEvict          230576                       # Transaction distribution
system.tol2bus.trans_dist::ReadExReq           345148                       # Transaction distribution
system.tol2bus.trans_dist::ReadExResp          345147                       # Transaction distribution
system.tol2bus.trans_dist::ReadCleanReq          1167                       # Transaction distribution
system.tol2bus.trans_dist::ReadSharedReq       483433                       # Transaction distribution
system.tol2bus.trans_dist::InvalidateReq           15                       # Transaction distribution
system.tol2bus.trans_dist::InvalidateResp           15                       # Transaction distribution
system.tol2bus.pkt_count_system.cpu.icache.mem_side::system.l2.cpu_side         2678                       # Packet count per connected master and slave (bytes)
system.tol2bus.pkt_count_system.cpu.dcache.mem_side::system.l2.cpu_side      2483738                       # Packet count per connected master and slave (bytes)
system.tol2bus.pkt_count::total               2486416                       # Packet count per connected master and slave (bytes)
system.tol2bus.pkt_size_system.cpu.icache.mem_side::system.l2.cpu_side        48352                       # Cumulative packet size per connected master and slave (bytes)
system.tol2bus.pkt_size_system.cpu.dcache.mem_side::system.l2.cpu_side     48905504                       # Cumulative packet size per connected master and slave (bytes)
system.tol2bus.pkt_size::total               48953856                       # Cumulative packet size per connected master and slave (bytes)
system.tol2bus.snoops                          289212                       # Total snoops (count)
system.tol2bus.snoopTraffic                   5934912                       # Total snoop traffic (bytes)
system.tol2bus.snoop_fanout::samples          1118975                       # Request fanout histogram
system.tol2bus.snoop_fanout::mean            0.000797                       # Request fanout histogram
system.tol2bus.snoop_fanout::stdev           0.028223                       # Request fanout histogram
system.tol2bus.snoop_fanout::underflows             0      0.00%      0.00% # Request fanout histogram
system.tol2bus.snoop_fanout::0                1118083     99.92%     99.92% # Request fanout histogram
system.tol2bus.snoop_fanout::1                    892      0.08%    100.00% # Request fanout histogram
system.tol2bus.snoop_fanout::2                      0      0.00%    100.00% # Request fanout histogram
system.tol2bus.snoop_fanout::overflows              0      0.00%    100.00% # Request fanout histogram
system.tol2bus.snoop_fanout::min_value              0                       # Request fanout histogram
system.tol2bus.snoop_fanout::max_value              1                       # Request fanout histogram
system.tol2bus.snoop_fanout::total            1118975                       # Request fanout histogram
system.tol2bus.reqLayer0.occupancy         1178357500                       # Layer occupancy (ticks)
system.tol2bus.reqLayer0.utilization              1.3                       # Layer utilization (%)
system.tol2bus.respLayer1.occupancy         828588997                       # Layer occupancy (ticks)
system.tol2bus.respLayer1.utilization             0.9                       # Layer utilization (%)
system.tol2bus.respLayer0.occupancy           1167000                       # Layer occupancy (ticks)
system.tol2bus.respLayer0.utilization             0.0                       # Layer utilization (%)
system.voltage_domain.voltage                       1                       # Voltage in Volts
system.clk_domain.clock                          1000                       # Clock period in ticks
system.l2.pwrStateResidencyTicks::UNDEFINED  92629038500                       # Cumulative time (in ticks) in various power states
system.l2.demand_hits::.cpu.inst                   71                       # number of demand (read+write) hits
system.l2.demand_hits::.cpu.data               475078                       # number of demand (read+write) hits
system.l2.demand_hits::total                   475149                       # number of demand (read+write) hits
system.l2.overall_hits::.cpu.inst                  71                       # number of overall hits
system.l2.overall_hits::.cpu.data              475078                       # number of overall hits
system.l2.overall_hits::total                  475149                       # number of overall hits
system.l2.demand_misses::.cpu.inst               1096                       # number of demand (read+write) misses
system.l2.demand_misses::.cpu.data             353503                       # number of demand (read+write) misses
system.l2.demand_misses::total                 354599                       # number of demand (read+write) misses
system.l2.overall_misses::.cpu.inst              1096                       # number of overall misses
system.l2.overall_misses::.cpu.data            353503                       # number of overall misses
system.l2.overall_misses::total                354599                       # number of overall misses
system.l2.demand_miss_latency::.cpu.inst     85289000                       # number of demand (read+write) miss cycles
system.l2.demand_miss_latency::.cpu.data  29043500500                       # number of demand (read+write) miss cycles
system.l2.demand_miss_latency::total      29128789500                       # number of demand (read+write) miss cycles
system.l2.overall_miss_latency::.cpu.inst     85289000                       # number of overall miss cycles
system.l2.overall_miss_latency::.cpu.data  29043500500                       # number of overall miss cycles
system.l2.overall_miss_latency::total     29128789500                       # number of overall miss cycles
system.l2.demand_accesses::.cpu.inst             1167                       # number of demand (read+write) accesses
system.l2.demand_accesses::.cpu.data           828581                       # number of demand (read+write) accesses
system.l2.demand_accesses::total               829748                       # number of demand (read+write) accesses
system.l2.overall_accesses::.cpu.inst            1167                       # number of overall (read+write) accesses
system.l2.overall_accesses::.cpu.data          828581                       # number of overall (read+write) accesses
system.l2.overall_accesses::total              829748                       # number of overall (read+write) accesses
system.l2.demand_miss_rate::.cpu.inst        0.939160                       # miss rate for demand accesses
system.l2.demand_miss_rate::.cpu.data        0.426637                       # miss rate for demand accesses
system.l2.demand_miss_rate::total            0.427357                       # miss rate for demand accesses
system.l2.overall_miss_rate::.cpu.inst       0.939160                       # miss rate for overall accesses
system.l2.overall_miss_rate::.cpu.data       0.426637                       # miss rate for overall accesses
system.l2.overall_miss_rate::total           0.427357                       # miss rate for overall accesses
system.l2.demand_avg_miss_latency::.cpu.inst 77818.430657                       # average overall miss latency
system.l2.demand_avg_miss_latency::.cpu.data 82159.134435                       # average overall miss latency
system.l2.demand_avg_miss_latency::total 82145.718121                       # average overall miss latency
system.l2.overall_avg_miss_latency::.cpu.inst 77818.430657                       # average overall miss latency
system.l2.overall_avg_miss_latency::.cpu.data 82159.134435                       # average overall miss latency
system.l2.overall_avg_miss_latency::total 82145.718121                       # average overall miss latency
system.l2.blocked_cycles::no_mshrs                  0                       # number of cycles access was blocked
system.l2.blocked_cycles::no_targets                0                       # number of cycles access was blocked
system.l2.blocked::no_mshrs                         0                       # number of cycles access was blocked
system.l2.blocked::no_targets                       0                       # number of cycles access was blocked
system.l2.avg_blocked_cycles::no_mshrs            nan                       # average number of cycles each access was blocked
system.l2.avg_blocked_cycles::no_targets          nan                       # average number of cycles each access was blocked
system.l2.writebacks::.writebacks              185466                       # number of writebacks
system.l2.writebacks::total                    185466                       # number of writebacks
system.l2.demand_mshr_hits::.cpu.data               3                       # number of demand (read+write) MSHR hits
system.l2.demand_mshr_hits::total                   3                       # number of demand (read+write) MSHR hits
system.l2.overall_mshr_hits::.cpu.data              3                       # number of overall MSHR hits
system.l2.overall_mshr_hits::total                  3                       # number of overall MSHR hits
system.l2.demand_mshr_misses::.cpu.inst          1096                       # number of demand (read+write) MSHR misses
system.l2.demand_mshr_misses::.cpu.data        353500                       # number of demand (read+write) MSHR misses
system.l2.demand_mshr_misses::total            354596                       # number of demand (read+write) MSHR misses
system.l2.overall_mshr_misses::.cpu.inst         1096                       # number of overall MSHR misses
system.l2.overall_mshr_misses::.cpu.data       353500                       # number of overall MSHR misses
system.l2.overall_mshr_misses::total           354596                       # number of overall MSHR misses
system.l2.demand_mshr_miss_latency::.cpu.inst     74329000                       # number of demand (read+write) MSHR miss cycles
system.l2.demand_mshr_miss_latency::.cpu.data  25508313500                       # number of demand (read+write) MSHR miss cycles
system.l2.demand_mshr_miss_latency::total  25582642500                       # number of demand (read+write) MSHR miss cycles
system.l2.overall_mshr_miss_latency::.cpu.inst     74329000                       # number of overall MSHR miss cycles
system.l2.overall_mshr_miss_latency::.cpu.data  25508313500                       # number of overall MSHR miss cycles
system.l2.overall_mshr_miss_latency::total  25582642500                       # number of overall MSHR miss cycles
system.l2.demand_mshr_miss_rate::.cpu.inst     0.939160                       # mshr miss rate for demand accesses
system.l2.demand_mshr_miss_rate::.cpu.data     0.426633                       # mshr miss rate for demand accesses
system.l2.demand_mshr_miss_rate::total       0.427354                       # mshr miss rate for demand accesses
system.l2.overall_mshr_miss_rate::.cpu.inst     0.939160                       # mshr miss rate for overall accesses
system.l2.overall_mshr_miss_rate::.cpu.data     0.426633                       # mshr miss rate for overall accesses
system.l2.overall_mshr_miss_rate::total      0.427354                       # mshr miss rate for overall accesses
system.l2.demand_avg_mshr_miss_latency::.cpu.inst 67818.430657                       # average overall mshr miss latency
system.l2.demand_avg_mshr_miss_latency::.cpu.data 72159.302687                       # average overall mshr miss latency
system.l2.demand_avg_mshr_miss_latency::total 72145.885740                       # average overall mshr miss latency
system.l2.overall_avg_mshr_miss_latency::.cpu.inst 67818.430657                       # average overall mshr miss latency
system.l2.overall_avg_mshr_miss_latency::.cpu.data 72159.302687                       # average overall mshr miss latency
system.l2.overall_avg_mshr_miss_latency::total 72145.885740                       # average overall mshr miss latency
system.l2.replacements                         289212                       # number of replacements
system.l2.WritebackDirty_hits::.writebacks       699717                       # number of WritebackDirty hits
system.l2.WritebackDirty_hits::total           699717                       # number of WritebackDirty hits
system.l2.WritebackDirty_accesses::.writebacks       699717                       # number of WritebackDirty accesses(hits+misses)
system.l2.WritebackDirty_accesses::total       699717                       # number of WritebackDirty accesses(hits+misses)
system.l2.WritebackClean_hits::.writebacks          337                       # number of WritebackClean hits
system.l2.WritebackClean_hits::total              337                       # number of WritebackClean hits
system.l2.WritebackClean_accesses::.writebacks          337                       # number of WritebackClean accesses(hits+misses)
system.l2.WritebackClean_accesses::total          337                       # number of WritebackClean accesses(hits+misses)
system.l2.ReadExReq_hits::.cpu.data            109302                       # number of ReadExReq hits
system.l2.ReadExReq_hits::total                109302                       # number of ReadExReq hits
system.l2.ReadExReq_misses::.cpu.data          235846                       # number of ReadExReq misses
system.l2.ReadExReq_misses::total              235846                       # number of ReadExReq misses
system.l2.ReadExReq_miss_latency::.cpu.data  19854588000                       # number of ReadExReq miss cycles
system.l2.ReadExReq_miss_latency::total   19854588000                       # number of ReadExReq miss cycles
system.l2.ReadExReq_accesses::.cpu.data        345148                       # number of ReadExReq accesses(hits+misses)
system.l2.ReadExReq_accesses::total            345148                       # number of ReadExReq accesses(hits+misses)
system.l2.ReadExReq_miss_rate::.cpu.data     0.683318                       # miss rate for ReadExReq accesses
system.l2.ReadExReq_miss_rate::total         0.683318                       # miss rate for ReadExReq accesses
system.l2.ReadExReq_avg_miss_latency::.cpu.data 84184.544152                       # average ReadExReq miss latency
system.l2.ReadExReq_avg_miss_latency::total 84184.544152                       # average ReadExReq miss latency
system.l2.ReadExReq_mshr_misses::.cpu.data       235846                       # number of ReadExReq MSHR misses
system.l2.ReadExReq_mshr_misses::total         235846                       # number of ReadExReq MSHR misses
system.l2.ReadExReq_mshr_miss_latency::.cpu.data  17496138000                       # number of ReadExReq MSHR miss cycles
system.l2.ReadExReq_mshr_miss_latency::total  17496138000                       # number of ReadExReq MSHR miss cycles
system.l2.ReadExReq_mshr_miss_rate::.cpu.data     0.683318                       # mshr miss rate for ReadExReq accesses
system.l2.ReadExReq_mshr_miss_rate::total     0.683318                       # mshr miss rate for ReadExReq accesses
system.l2.ReadExReq_avg_mshr_miss_latency::.cpu.data 74184.586552                       # average ReadExReq mshr miss latency
system.l2.ReadExReq_avg_mshr_miss_latency::total 74184.586552                       # average ReadExReq mshr miss latency
system.l2.ReadCleanReq_hits::.cpu.inst             71                       # number of ReadCleanReq hits
system.l2.ReadCleanReq_hits::total                 71                       # number of ReadCleanReq hits
system.l2.ReadCleanReq_misses::.cpu.inst         1096                       # number of ReadCleanReq misses
system.l2.ReadCleanReq_misses::total             1096                       # number of ReadCleanReq misses
system.l2.ReadCleanReq_miss_latency::.cpu.inst     85289000                       # number of ReadCleanReq miss cycles
system.l2.ReadCleanReq_miss_latency::total     85289000                       # number of ReadCleanReq miss cycles
system.l2.ReadCleanReq_accesses::.cpu.inst         1167                       # number of ReadCleanReq accesses(hits+misses)
system.l2.ReadCleanReq_accesses::total           1167                       # number of ReadCleanReq accesses(hits+misses)
system.l2.ReadCleanReq_miss_rate::.cpu.inst     0.939160                       # miss rate for ReadCleanReq accesses
system.l2.ReadCleanReq_miss_rate::total      0.939160                       # miss rate for ReadCleanReq accesses
system.l2.ReadCleanReq_avg_miss_latency::.cpu.inst 77818.430657                       # average ReadCleanReq miss latency
system.l2.ReadCleanReq_avg_miss_latency::total 77818.430657                       # average ReadCleanReq miss latency
system.l2.ReadCleanReq_mshr_misses::.cpu.inst         1096                       # number of ReadCleanReq MSHR misses
system.l2.ReadCleanReq_mshr_misses::total         1096                       # number of ReadCleanReq MSHR misses
system.l2.ReadCleanReq_mshr_miss_latency::.cpu.inst     74329000                       # number of ReadCleanReq MSHR miss cycles
system.l2.ReadCleanReq_mshr_miss_latency::total     74329000                       # number of ReadCleanReq MSHR miss cycles
system.l2.ReadCleanReq_mshr_miss_rate::.cpu.inst     0.939160                       # mshr miss rate for ReadCleanReq accesses
system.l2.ReadCleanReq_mshr_miss_rate::total     0.939160                       # mshr miss rate for ReadCleanReq accesses
system.l2.ReadCleanReq_avg_mshr_miss_latency::.cpu.inst 67818.430657                       # average ReadCleanReq mshr miss latency
system.l2.ReadCleanReq_avg_mshr_miss_latency::total 67818.430657                       # average ReadCleanReq mshr miss latency
system.l2.ReadSharedReq_hits::.cpu.data        365776                       # number of ReadSharedReq hits
system.l2.ReadSharedReq_hits::total            365776                       # number of ReadSharedReq hits
system.l2.ReadSharedReq_misses::.cpu.data       117657                       # number of ReadSharedReq misses
system.l2.ReadSharedReq_misses::total          117657                       # number of ReadSharedReq misses
system.l2.ReadSharedReq_miss_latency::.cpu.data   9188912500                       # number of ReadSharedReq miss cycles
system.l2.ReadSharedReq_miss_latency::total   9188912500                       # number of ReadSharedReq miss cycles
system.l2.ReadSharedReq_accesses::.cpu.data       483433                       # number of ReadSharedReq accesses(hits+misses)
system.l2.ReadSharedReq_accesses::total        483433                       # number of ReadSharedReq accesses(hits+misses)
system.l2.ReadSharedReq_miss_rate::.cpu.data     0.243378                       # miss rate for ReadSharedReq accesses
system.l2.ReadSharedReq_miss_rate::total     0.243378                       # miss rate for ReadSharedReq accesses
system.l2.ReadSharedReq_avg_miss_latency::.cpu.data 78099.156871                       # average ReadSharedReq miss latency
system.l2.ReadSharedReq_avg_miss_latency::total 78099.156871                       # average ReadSharedReq miss latency
system.l2.ReadSharedReq_mshr_hits::.cpu.data            3                       # number of ReadSharedReq MSHR hits
system.l2.ReadSharedReq_mshr_hits::total            3                       # number of ReadSharedReq MSHR hits
system.l2.ReadSharedReq_mshr_misses::.cpu.data       117654                       # number of ReadSharedReq MSHR misses
system.l2.ReadSharedReq_mshr_misses::total       117654                       # number of ReadSharedReq MSHR misses
system.l2.ReadSharedReq_mshr_miss_latency::.cpu.data   8012175500                       # number of ReadSharedReq MSHR miss cycles
system.l2.ReadSharedReq_mshr_miss_latency::total   8012175500                       # number of ReadSharedReq MSHR miss cycles
system.l2.ReadSharedReq_mshr_miss_rate::.cpu.data     0.243372                       # mshr miss rate for ReadSharedReq accesses
system.l2.ReadSharedReq_mshr_miss_rate::total     0.243372                       # mshr miss rate for ReadSharedReq accesses
system.l2.ReadSharedReq_avg_mshr_miss_latency::.cpu.data 68099.473881                       # average ReadSharedReq mshr miss latency
system.l2.ReadSharedReq_avg_mshr_miss_latency::total 68099.473881                       # average ReadSharedReq mshr miss latency
system.l2.InvalidateReq_hits::.cpu.data            15                       # number of InvalidateReq hits
system.l2.InvalidateReq_hits::total                15                       # number of InvalidateReq hits
system.l2.InvalidateReq_accesses::.cpu.data           15                       # number of InvalidateReq accesses(hits+misses)
system.l2.InvalidateReq_accesses::total            15                       # number of InvalidateReq accesses(hits+misses)
system.l2.tags.pwrStateResidencyTicks::UNDEFINED  92629038500                       # Cumulative time (in ticks) in various power states
system.l2.tags.tagsinuse                 63087.162141                       # Cycle average of tags in use
system.l2.tags.total_refs                     1656525                       # Total number of references to valid blocks.
system.l2.tags.sampled_refs                    354763                       # Sample count of references to valid blocks.
system.l2.tags.avg_refs                      4.669385                       # Average number of references to valid blocks.
system.l2.tags.warmup_cycle                     77000                       # Cycle when the warmup percentage was hit.
system.l2.tags.occ_blocks::.writebacks      50.941116                       # Average occupied blocks per requestor
system.l2.tags.occ_blocks::.cpu.inst       150.730766                       # Average occupied blocks per requestor
system.l2.tags.occ_blocks::.cpu.data     62885.490260                       # Average occupied blocks per requestor
system.l2.tags.occ_percent::.writebacks      0.000777                       # Average percentage of cache occupancy
system.l2.tags.occ_percent::.cpu.inst        0.002300                       # Average percentage of cache occupancy
system.l2.tags.occ_percent::.cpu.data        0.959556                       # Average percentage of cache occupancy
system.l2.tags.occ_percent::total            0.962634                       # Average percentage of cache occupancy
system.l2.tags.occ_task_id_blocks::1024         65536                       # Occupied blocks per task id
system.l2.tags.age_task_id_blocks_1024::0          126                       # Occupied blocks per task id
system.l2.tags.age_task_id_blocks_1024::1           88                       # Occupied blocks per task id
system.l2.tags.age_task_id_blocks_1024::2         2019                       # Occupied blocks per task id
system.l2.tags.age_task_id_blocks_1024::3        25556                       # Occupied blocks per task id
system.l2.tags.age_task_id_blocks_1024::4        37747                       # Occupied blocks per task id
system.l2.tags.occ_task_id_percent::1024            1                       # Percentage of cache occupancy per task id
system.l2.tags.tag_accesses                  13606995                       # Number of tag accesses
system.l2.tags.data_accesses                 13606995                       # Number of data accesses
system.cpu_voltage_domain.voltage                   1                       # Voltage in Volts
system.mem_ctrls.pwrStateResidencyTicks::UNDEFINED  92629038500                       # Cumulative time (in ticks) in various power states
system.mem_ctrls.bytes_read::.cpu.inst          35072                       # Number of bytes read from this memory
system.mem_ctrls.bytes_read::.cpu.data       11311968                       # Number of bytes read from this memory
system.mem_ctrls.bytes_read::total           11347040                       # Number of bytes read from this memory
system.mem_ctrls.bytes_inst_read::.cpu.inst        35072                       # Number of instructions bytes read from this memory
system.mem_ctrls.bytes_inst_read::total         35072                       # Number of instructions bytes read from this memory
system.mem_ctrls.bytes_written::.writebacks      5934912                       # Number of bytes written to this memory
system.mem_ctrls.bytes_written::total         5934912                       # Number of bytes written to this memory
system.mem_ctrls.num_reads::.cpu.inst            1096                       # Number of read requests responded to by this memory
system.mem_ctrls.num_reads::.cpu.data          353499                       # Number of read requests responded to by this memory
system.mem_ctrls.num_reads::total              354595                       # Number of read requests responded to by this memory
system.mem_ctrls.num_writes::.writebacks       185466                       # Number of write requests responded to by this memory
system.mem_ctrls.num_writes::total             185466                       # Number of write requests responded to by this memory
system.mem_ctrls.bw_read::.cpu.inst            378629                       # Total read bandwidth from this memory (bytes/s)
system.mem_ctrls.bw_read::.cpu.data         122121186                       # Total read bandwidth from this memory (bytes/s)
system.mem_ctrls.bw_read::total             122499814                       # Total read bandwidth from this memory (bytes/s)
system.mem_ctrls.bw_inst_read::.cpu.inst       378629                       # Instruction read bandwidth from this memory (bytes/s)
system.mem_ctrls.bw_inst_read::total           378629                       # Instruction read bandwidth from this memory (bytes/s)
system.mem_ctrls.bw_write::.writebacks       64071830                       # Write bandwidth from this memory (bytes/s)
system.mem_ctrls.bw_write::total             64071830                       # Write bandwidth from this memory (bytes/s)
system.mem_ctrls.bw_total::.writebacks       64071830                       # Total bandwidth to/from this memory (bytes/s)
system.mem_ctrls.bw_total::.cpu.inst           378629                       # Total bandwidth to/from this memory (bytes/s)
system.mem_ctrls.bw_total::.cpu.data        122121186                       # Total bandwidth to/from this memory (bytes/s)
system.mem_ctrls.bw_total::total            186571644                       # Total bandwidth to/from this memory (bytes/s)
system.mem_ctrls.avgPriority_.writebacks::samples    152194.00                       # Average QoS priority value for accepted requests
system.mem_ctrls.avgPriority_.cpu.inst::samples      1096.00                       # Average QoS priority value for accepted requests
system.mem_ctrls.avgPriority_.cpu.data::samples    353476.00                       # Average QoS priority value for accepted requests
system.mem_ctrls.priorityMinLatency      0.000000018750                       # per QoS priority minimum request to response latency (s)
system.mem_ctrls.priorityMaxLatency      0.003100624500                       # per QoS priority maximum request to response latency (s)
system.mem_ctrls.numReadWriteTurnArounds         9032                       # Number of turnarounds from READ to WRITE
system.mem_ctrls.numWriteReadTurnArounds         9032                       # Number of turnarounds from WRITE to READ
system.mem_ctrls.numStayReadState              906987                       # Number of times bus staying in READ state
system.mem_ctrls.numStayWriteState             143367                       # Number of times bus staying in WRITE state
system.mem_ctrls.readReqs                      354595                       # Number of read requests accepted
system.mem_ctrls.writeReqs                     185466                       # Number of write requests accepted
system.mem_ctrls.readBursts                    354595                       # Number of DRAM read bursts, including those serviced by the write queue
system.mem_ctrls.writeBursts                   185466                       # Number of DRAM write bursts, including those merged in the write queue
system.mem_ctrls.servicedByWrQ                     23                       # Number of DRAM read bursts serviced by the write queue
system.mem_ctrls.mergedWrBursts                 33272                       # Number of DRAM write bursts merged with an existing one
system.mem_ctrls.neitherReadNorWriteReqs            0                       # Number of requests that are neither read nor write
system.mem_ctrls.perBankRdBursts::0             22519                       # Per bank write bursts
system.mem_ctrls.perBankRdBursts::1             22475                       # Per bank write bursts
system.mem_ctrls.perBankRdBursts::2             22564                       # Per bank write bursts
system.mem_ctrls.perBankRdBursts::3             22146                       # Per bank write bursts
system.mem_ctrls.perBankRdBursts::4             21978                       # Per bank write bursts
system.mem_ctrls.perBankRdBursts::5             21763                       # Per bank write bursts
system.mem_ctrls.perBankRdBursts::6             21703                       # Per bank write bursts
system.mem_ctrls.perBankRdBursts::7             21986                       # Per bank write bursts
system.mem_ctrls.perBankRdBursts::8             22030                       # Per bank write bursts
system.mem_ctrls.perBankRdBursts::9             21901                       # Per bank write bursts
system.mem_ctrls.perBankRdBursts::10            21965                       # Per bank write bursts
system.mem_ctrls.perBankRdBursts::11            22079                       # Per bank write bursts
system.mem_ctrls.perBankRdBursts::12            22338                       # Per bank write bursts
system.mem_ctrls.perBankRdBursts::13            22448                       # Per bank write bursts
system.mem_ctrls.perBankRdBursts::14            22408                       # Per bank write bursts
system.mem_ctrls.perBankRdBursts::15            22269                       # Per bank write bursts
system.mem_ctrls.perBankWrBursts::0              9651                       # Per bank write bursts
system.mem_ctrls.perBankWrBursts::1              9755                       # Per bank write bursts
system.mem_ctrls.perBankWrBursts::2              9735                       # Per bank write bursts
system.mem_ctrls.perBankWrBursts::3              9591                       # Per bank write bursts
system.mem_ctrls.perBankWrBursts::4              9541                       # Per bank write bursts
system.mem_ctrls.perBankWrBursts::5              9472                       # Per bank write bursts
system.mem_ctrls.perBankWrBursts::6              9404                       # Per bank write bursts
system.mem_ctrls.perBankWrBursts::7              9287                       # Per bank write bursts
system.mem_ctrls.perBankWrBursts::8              9309                       # Per bank write bursts
system.mem_ctrls.perBankWrBursts::9              9397                       # Per bank write bursts
system.mem_ctrls.perBankWrBursts::10             9458                       # Per bank write bursts
system.mem_ctrls.perBankWrBursts::11             9420                       # Per bank write bursts
system.mem_ctrls.perBankWrBursts::12             9423                       # Per bank write bursts
system.mem_ctrls.perBankWrBursts::13             9562                       # Per bank write bursts
system.mem_ctrls.perBankWrBursts::14             9648                       # Per bank write bursts
system.mem_ctrls.perBankWrBursts::15             9513                       # Per bank write bursts
system.mem_ctrls.avgRdQLen                       1.08                       # Average read queue length when enqueuing
system.mem_ctrls.avgWrQLen                      24.67                       # Average write queue length when enqueuing
system.mem_ctrls.totQLat                   4319757500                       # Total ticks spent queuing
system.mem_ctrls.totBusLat                 1772860000                       # Total ticks spent in databus transfers
system.mem_ctrls.totMemAccLat             10967982500                       # Total ticks spent from burst creation until serviced by the DRAM
system.mem_ctrls.avgQLat                     12183.02                       # Average queueing delay per DRAM burst
system.mem_ctrls.avgBusLat                    5000.00                       # Average bus latency per DRAM burst
system.mem_ctrls.avgMemAccLat                30933.02                       # Average memory access latency per DRAM burst
system.mem_ctrls.numRdRetry                         0                       # Number of times read queue was full causing retry
system.mem_ctrls.numWrRetry                         0                       # Number of times write queue was full causing retry
system.mem_ctrls.readRowHits                   247893                       # Number of row buffer hits during reads
system.mem_ctrls.writeRowHits                   83453                       # Number of row buffer hits during writes
system.mem_ctrls.readRowHitRate                 69.91                       # Row buffer hit rate for reads
system.mem_ctrls.writeRowHitRate                54.83                       # Row buffer hit rate for writes
system.mem_ctrls.readPktSize::0                     0                       # Read request sizes (log2)
system.mem_ctrls.readPktSize::1                     0                       # Read request sizes (log2)
system.mem_ctrls.readPktSize::2                     0                       # Read request sizes (log2)
system.mem_ctrls.readPktSize::3                     0                       # Read request sizes (log2)
system.mem_ctrls.readPktSize::4                     0                       # Read request sizes (log2)
system.mem_ctrls.readPktSize::5                354595                       # Read request sizes (log2)
system.mem_ctrls.readPktSize::6                     0                       # Read request sizes (log2)
system.mem_ctrls.writePktSize::0                    0                       # Write request sizes (log2)
system.mem_ctrls.writePktSize::1                    0                       # Write request sizes (log2)
system.mem_ctrls.writePktSize::2                    0                       # Write request sizes (log2)
system.mem_ctrls.writePktSize::3                    0                       # Write request sizes (log2)
system.mem_ctrls.writePktSize::4                    0                       # Write request sizes (log2)
system.mem_ctrls.writePktSize::5               185466                       # Write request sizes (log2)
system.mem_ctrls.writePktSize::6                    0                       # Write request sizes (log2)
system.mem_ctrls.rdQLenPdf::0                  284820                       # What read queue length does an incoming req see
system.mem_ctrls.rdQLenPdf::1                   69567                       # What read queue length does an incoming req see
system.mem_ctrls.rdQLenPdf::2                     153                       # What read queue length does an incoming req see
system.mem_ctrls.rdQLenPdf::3                      31                       # What read queue length does an incoming req see
system.mem_ctrls.rdQLenPdf::4                       1                       # What read queue length does an incoming req see
system.mem_ctrls.rdQLenPdf::5                       0                       # What read queue length does an incoming req see
system.mem_ctrls.rdQLenPdf::6                       0                       # What read queue length does an incoming req see
system.mem_ctrls.rdQLenPdf::7                       0                       # What read queue length does an incoming req see
system.mem_ctrls.rdQLenPdf::8                       0                       # What read queue length does an incoming req see
system.mem_ctrls.rdQLenPdf::9                       0                       # What read queue length does an incoming req see
system.mem_ctrls.rdQLenPdf::10                      0                       # What read queue length does an incoming req see
system.mem_ctrls.rdQLenPdf::11                      0                       # What read queue length does an incoming req see
system.mem_ctrls.rdQLenPdf::12                      0                       # What read queue length does an incoming req see
system.mem_ctrls.rdQLenPdf::13                      0                       # What read queue length does an incoming req see
system.mem_ctrls.rdQLenPdf::14                      0                       # What read queue length does an incoming req see
system.mem_ctrls.rdQLenPdf::15                      0                       # What read queue length does an incoming req see
system.mem_ctrls.rdQLenPdf::16                      0                       # What read queue length does an incoming req see
system.mem_ctrls.rdQLenPdf::17                      0                       # What read queue length does an incoming req see
system.mem_ctrls.rdQLenPdf::18                      0                       # What read queue length does an incoming req see
system.mem_ctrls.rdQLenPdf::19                      0                       # What read queue length does an incoming req see
system.mem_ctrls.rdQLenPdf::20                      0                       # What read queue length does an incoming req see
system.mem_ctrls.rdQLenPdf::21                      0                       # What read queue length does an incoming req see
system.mem_ctrls.rdQLenPdf::22                      0                       # What read queue length does an incoming req see
system.mem_ctrls.rdQLenPdf::23                      0                       # What read queue length does an incoming req see
system.mem_ctrls.rdQLenPdf::24                      0                       # What read queue length does an incoming req see
system.mem_ctrls.rdQLenPdf::25                      0                       # What read queue length does an incoming req see
system.mem_ctrls.rdQLenPdf::26                      0                       # What read queue length does an incoming req see
system.mem_ctrls.rdQLenPdf::27                      0                       # What read queue length does an incoming req see
system.mem_ctrls.rdQLenPdf::28                      0                       # What read queue length does an incoming req see
system.mem_ctrls.rdQLenPdf::29                      0                       # What read queue length does an incoming req see
system.mem_ctrls.rdQLenPdf::30                      0                       # What read queue length does an incoming req see
system.mem_ctrls.rdQLenPdf::31                      0                       # What read queue length does an incoming req see
system.mem_ctrls.wrQLenPdf::0                       1                       # What write queue length does an incoming req see
system.mem_ctrls.wrQLenPdf::1                       1                       # What write queue length does an incoming req see
system.mem_ctrls.wrQLenPdf::2                       1                       # What write queue length does an incoming req see
system.mem_ctrls.wrQLenPdf::3                       1                       # What write queue length does an incoming req see
system.mem_ctrls.wrQLenPdf::4                       1                       # What write queue length does an incoming req see
system.mem_ctrls.wrQLenPdf::5                       1                       # What write queue length does an incoming req see
system.mem_ctrls.wrQLenPdf::6                       1                       # What write queue length does an incoming req see
system.mem_ctrls.wrQLenPdf::7                       1                       # What write queue length does an incoming req see
system.mem_ctrls.wrQLenPdf::8                       1                       # What write queue length does an incoming req see
system.mem_ctrls.wrQLenPdf::9                       1                       # What write queue length does an incoming req see
system.mem_ctrls.wrQLenPdf::10                      1                       # What write queue length does an incoming req see
system.mem_ctrls.wrQLenPdf::11                      1                       # What write queue length does an incoming req see
system.mem_ctrls.wrQLenPdf::12                      1                       # What write queue length does an incoming req see
system.mem_ctrls.wrQLenPdf::13                      1                       # What write queue length does an incoming req see
system.mem_ctrls.wrQLenPdf::14                      1                       # What write queue length does an incoming req see
system.mem_ctrls.wrQLenPdf::15                   3531                       # What write queue length does an incoming req see
system.mem_ctrls.wrQLenPdf::16                   3620                       # What write queue length does an incoming req see
system.mem_ctrls.wrQLenPdf::17                   7735                       # What write queue length does an incoming req see
system.mem_ctrls.wrQLenPdf::18                   9122                       # What write queue length does an incoming req see
system.mem_ctrls.wrQLenPdf::19                   9131                       # What write queue length does an incoming req see
system.mem_ctrls.wrQLenPdf::20                   9181                       # What write queue length does an incoming req see
system.mem_ctrls.wrQLenPdf::21                   9105                       # What write queue length does an incoming req see
system.mem_ctrls.wrQLenPdf::22                   9151                       # What write queue length does an incoming req see
system.mem_ctrls.wrQLenPdf::23                   9099                       # What write queue length does an incoming req see
system.mem_ctrls.wrQLenPdf::24                   9145                       # What write queue length does an incoming req see
system.mem_ctrls.wrQLenPdf::25                   9275                       # What write queue length does an incoming req see
system.mem_ctrls.wrQLenPdf::26                   9178                       # What write queue length does an incoming req see
system.mem_ctrls.wrQLenPdf::27                   9097                       # What write queue length does an incoming req see
system.mem_ctrls.wrQLenPdf::28                   9091                       # What write queue length does an incoming req see
system.mem_ctrls.wrQLenPdf::29                   9187                       # What write queue length does an incoming req see
system.mem_ctrls.wrQLenPdf::30                   9049                       # What write queue length does an incoming req see
system.mem_ctrls.wrQLenPdf::31                   9069                       # What write queue length does an incoming req see
system.mem_ctrls.wrQLenPdf::32                   9406                       # What write queue length does an incoming req see
system.mem_ctrls.wrQLenPdf::33                      7                       # What write queue length does an incoming req see
system.mem_ctrls.wrQLenPdf::34                      0                       # What write queue length does an incoming req see
system.mem_ctrls.wrQLenPdf::35                      0                       # What write queue length does an incoming req see
system.mem_ctrls.wrQLenPdf::36                      0                       # What write queue length does an incoming req see
system.mem_ctrls.wrQLenPdf::37                      0                       # What write queue length does an incoming req see
system.mem_ctrls.wrQLenPdf::38                      0                       # What write queue length does an incoming req see
system.mem_ctrls.wrQLenPdf::39                      0                       # What write queue length does an incoming req see
system.mem_ctrls.wrQLenPdf::40                      0                       # What write queue length does an incoming req see
system.mem_ctrls.wrQLenPdf::41                      0                       # What write queue length does an incoming req see
system.mem_ctrls.wrQLenPdf::42                      0                       # What write queue length does an incoming req see
system.mem_ctrls.wrQLenPdf::43                      0                       # What write queue length does an incoming req see
system.mem_ctrls.wrQLenPdf::44                      0                       # What write queue length does an incoming req see
system.mem_ctrls.wrQLenPdf::45                      0                       # What write queue length does an incoming req see
system.mem_ctrls.wrQLenPdf::46                      0                       # What write queue length does an incoming req see
system.mem_ctrls.wrQLenPdf::47                      0                       # What write queue length does an incoming req see
system.mem_ctrls.wrQLenPdf::48                      0                       # What write queue length does an incoming req see
system.mem_ctrls.wrQLenPdf::49                      0                       # What write queue length does an incoming req see
system.mem_ctrls.wrQLenPdf::50                      0                       # What write queue length does an incoming req see
system.mem_ctrls.wrQLenPdf::51                      0                       # What write queue length does an incoming req see
system.mem_ctrls.wrQLenPdf::52                      0                       # What write queue length does an incoming req see
system.mem_ctrls.wrQLenPdf::53                      0                       # What write queue length does an incoming req see
system.mem_ctrls.wrQLenPdf::54                      0                       # What write queue length does an incoming req see
system.mem_ctrls.wrQLenPdf::55                      0                       # What write queue length does an incoming req see
system.mem_ctrls.wrQLenPdf::56                      0                       # What write queue length does an incoming req see
system.mem_ctrls.wrQLenPdf::57                      0                       # What write queue length does an incoming req see
system.mem_ctrls.wrQLenPdf::58                      0                       # What write queue length does an incoming req see
system.mem_ctrls.wrQLenPdf::59                      0                       # What write queue length does an incoming req see
system.mem_ctrls.wrQLenPdf::60                      0                       # What write queue length does an incoming req see
system.mem_ctrls.wrQLenPdf::61                      0                       # What write queue length does an incoming req see
system.mem_ctrls.wrQLenPdf::62                      0                       # What write queue length does an incoming req see
system.mem_ctrls.wrQLenPdf::63                      0                       # What write queue length does an incoming req see
system.mem_ctrls.bytesPerActivate::samples       175379                       # Bytes accessed per row activation
system.mem_ctrls.bytesPerActivate::mean    184.915731                       # Bytes accessed per row activation
system.mem_ctrls.bytesPerActivate::gmean   105.953285                       # Bytes accessed per row activation
system.mem_ctrls.bytesPerActivate::stdev   266.457315                       # Bytes accessed per row activation
system.mem_ctrls.bytesPerActivate::0-127       122028     69.58%     69.58% # Bytes accessed per row activation
system.mem_ctrls.bytesPerActivate::128-255        23052     13.14%     82.72% # Bytes accessed per row activation
system.mem_ctrls.bytesPerActivate::256-383         4655      2.65%     85.38% # Bytes accessed per row activation
system.mem_ctrls.bytesPerActivate::384-511         1858      1.06%     86.44% # Bytes accessed per row activation
system.mem_ctrls.bytesPerActivate::512-639         9080      5.18%     91.61% # Bytes accessed per row activation
system.mem_ctrls.bytesPerActivate::640-767          845      0.48%     92.10% # Bytes accessed per row activation
system.mem_ctrls.bytesPerActivate::768-895          781      0.45%     92.54% # Bytes accessed per row activation
system.mem_ctrls.bytesPerActivate::896-1023         1295      0.74%     93.28% # Bytes accessed per row activation
system.mem_ctrls.bytesPerActivate::1024-1151        11785      6.72%    100.00% # Bytes accessed per row activation
system.mem_ctrls.bytesPerActivate::total       175379                       # Bytes accessed per row activation
system.mem_ctrls.rdPerTurnAround::samples         9032                       # Reads before turning the bus around for writes
system.mem_ctrls.rdPerTurnAround::mean      39.256089                       # Reads before turning the bus around for writes
system.mem_ctrls.rdPerTurnAround::gmean     27.449721                       # Reads before turning the bus around for writes
system.mem_ctrls.rdPerTurnAround::stdev     77.983179                       # Reads before turning the bus around for writes
system.mem_ctrls.rdPerTurnAround::0-127          8843     97.91%     97.91% # Reads before turning the bus around for writes
system.mem_ctrls.rdPerTurnAround::128-255           42      0.47%     98.37% # Reads before turning the bus around for writes
system.mem_ctrls.rdPerTurnAround::256-383           17      0.19%     98.56% # Reads before turning the bus around for writes
system.mem_ctrls.rdPerTurnAround::384-511            5      0.06%     98.62% # Reads before turning the bus around for writes
[...]
system.cpu.icache.tags.occ_task_id_blocks::1024          823                       # Occupied blocks per task id
system.cpu.icache.tags.age_task_id_blocks_1024::3          215                       # Occupied blocks per task id
system.cpu.icache.tags.age_task_id_blocks_1024::4          608                       # Occupied blocks per task id
system.cpu.icache.tags.occ_task_id_percent::1024     0.803711                       # Percentage of cache occupancy per task id
system.cpu.icache.tags.tag_accesses          26689661                       # Number of tag accesses
system.cpu.icache.tags.data_accesses         26689661                       # Number of data accesses
system.cpu.dtb.walker.pwrStateResidencyTicks::UNDEFINED  92629038500                       # Cumulative time (in ticks) in various power states
system.cpu.dtb.stage2_mmu.stage2_tlb.walker.pwrStateResidencyTicks::UNDEFINED  92629038500                       # Cumulative time (in ticks) in various power states
system.cpu.dcache.pwrStateResidencyTicks::UNDEFINED  92629038500                       # Cumulative time (in ticks) in various power states
system.cpu.dcache.demand_hits::.cpu.data     51157402                       # number of demand (read+write) hits
system.cpu.dcache.demand_hits::total         51157402                       # number of demand (read+write) hits
system.cpu.dcache.overall_hits::.cpu.data     51157818                       # number of overall hits
system.cpu.dcache.overall_hits::total        51157818                       # number of overall hits
system.cpu.dcache.demand_misses::.cpu.data       944728                       # number of demand (read+write) misses
system.cpu.dcache.demand_misses::total         944728                       # number of demand (read+write) misses
system.cpu.dcache.overall_misses::.cpu.data       952730                       # number of overall misses
system.cpu.dcache.overall_misses::total        952730                       # number of overall misses
system.cpu.dcache.demand_miss_latency::.cpu.data  41296307000                       # number of demand (read+write) miss cycles
system.cpu.dcache.demand_miss_latency::total  41296307000                       # number of demand (read+write) miss cycles
system.cpu.dcache.overall_miss_latency::.cpu.data  41296307000                       # number of overall miss cycles
system.cpu.dcache.overall_miss_latency::total  41296307000                       # number of overall miss cycles
system.cpu.dcache.demand_accesses::.cpu.data     52102130                       # number of demand (read+write) accesses
system.cpu.dcache.demand_accesses::total     52102130                       # number of demand (read+write) accesses
system.cpu.dcache.overall_accesses::.cpu.data     52110548                       # number of overall (read+write) accesses
system.cpu.dcache.overall_accesses::total     52110548                       # number of overall (read+write) accesses
system.cpu.dcache.demand_miss_rate::.cpu.data     0.018132                       # miss rate for demand accesses
system.cpu.dcache.demand_miss_rate::total     0.018132                       # miss rate for demand accesses
system.cpu.dcache.overall_miss_rate::.cpu.data     0.018283                       # miss rate for overall accesses
system.cpu.dcache.overall_miss_rate::total     0.018283                       # miss rate for overall accesses
system.cpu.dcache.demand_avg_miss_latency::.cpu.data 43712.377531                       # average overall miss latency
system.cpu.dcache.demand_avg_miss_latency::total 43712.377531                       # average overall miss latency
system.cpu.dcache.overall_avg_miss_latency::.cpu.data 43345.236321                       # average overall miss latency
system.cpu.dcache.overall_avg_miss_latency::total 43345.236321                       # average overall miss latency
system.cpu.dcache.blocked_cycles::no_mshrs         6689                       # number of cycles access was blocked
system.cpu.dcache.blocked_cycles::no_targets            0                       # number of cycles access was blocked
system.cpu.dcache.blocked::no_mshrs                78                       # number of cycles access was blocked
system.cpu.dcache.blocked::no_targets               0                       # number of cycles access was blocked
system.cpu.dcache.avg_blocked_cycles::no_mshrs    85.756410                       # average number of cycles each access was blocked
system.cpu.dcache.avg_blocked_cycles::no_targets          nan                       # average number of cycles each access was blocked
system.cpu.dcache.writebacks::.writebacks       699717                       # number of writebacks
system.cpu.dcache.writebacks::total            699717                       # number of writebacks
system.cpu.dcache.demand_mshr_hits::.cpu.data       124135                       # number of demand (read+write) MSHR hits
system.cpu.dcache.demand_mshr_hits::total       124135                       # number of demand (read+write) MSHR hits
system.cpu.dcache.overall_mshr_hits::.cpu.data       124135                       # number of overall MSHR hits
system.cpu.dcache.overall_mshr_hits::total       124135                       # number of overall MSHR hits
system.cpu.dcache.demand_mshr_misses::.cpu.data       820593                       # number of demand (read+write) MSHR misses
system.cpu.dcache.demand_mshr_misses::total       820593                       # number of demand (read+write) MSHR misses
system.cpu.dcache.overall_mshr_misses::.cpu.data       828595                       # number of overall MSHR misses
system.cpu.dcache.overall_mshr_misses::total       828595                       # number of overall MSHR misses
system.cpu.dcache.demand_mshr_miss_latency::.cpu.data  34639639500                       # number of demand (read+write) MSHR miss cycles
system.cpu.dcache.demand_mshr_miss_latency::total  34639639500                       # number of demand (read+write) MSHR miss cycles
system.cpu.dcache.overall_mshr_miss_latency::.cpu.data  35276737999                       # number of overall MSHR miss cycles
system.cpu.dcache.overall_mshr_miss_latency::total  35276737999                       # number of overall MSHR miss cycles
system.cpu.dcache.demand_mshr_miss_rate::.cpu.data     0.015750                       # mshr miss rate for demand accesses
system.cpu.dcache.demand_mshr_miss_rate::total     0.015750                       # mshr miss rate for demand accesses
system.cpu.dcache.overall_mshr_miss_rate::.cpu.data     0.015901                       # mshr miss rate for overall accesses
system.cpu.dcache.overall_mshr_miss_rate::total     0.015901                       # mshr miss rate for overall accesses
system.cpu.dcache.demand_avg_mshr_miss_latency::.cpu.data 42212.935645                       # average overall mshr miss latency
system.cpu.dcache.demand_avg_mshr_miss_latency::total 42212.935645                       # average overall mshr miss latency
system.cpu.dcache.overall_avg_mshr_miss_latency::.cpu.data 42574.162286                       # average overall mshr miss latency
system.cpu.dcache.overall_avg_mshr_miss_latency::total 42574.162286                       # average overall mshr miss latency
system.cpu.dcache.replacements                 826547                       # number of replacements
system.cpu.dcache.ReadReq_hits::.cpu.data     40672671                       # number of ReadReq hits
system.cpu.dcache.ReadReq_hits::total        40672671                       # number of ReadReq hits
system.cpu.dcache.ReadReq_misses::.cpu.data       479341                       # number of ReadReq misses
system.cpu.dcache.ReadReq_misses::total        479341                       # number of ReadReq misses
system.cpu.dcache.ReadReq_miss_latency::.cpu.data  13920981500                       # number of ReadReq miss cycles
system.cpu.dcache.ReadReq_miss_latency::total  13920981500                       # number of ReadReq miss cycles
system.cpu.dcache.ReadReq_accesses::.cpu.data     41152012                       # number of ReadReq accesses(hits+misses)
system.cpu.dcache.ReadReq_accesses::total     41152012                       # number of ReadReq accesses(hits+misses)
system.cpu.dcache.ReadReq_miss_rate::.cpu.data     0.011648                       # miss rate for ReadReq accesses
system.cpu.dcache.ReadReq_miss_rate::total     0.011648                       # miss rate for ReadReq accesses
system.cpu.dcache.ReadReq_avg_miss_latency::.cpu.data 29041.916923                       # average ReadReq miss latency
system.cpu.dcache.ReadReq_avg_miss_latency::total 29041.916923                       # average ReadReq miss latency
system.cpu.dcache.ReadReq_mshr_hits::.cpu.data         3911                       # number of ReadReq MSHR hits
system.cpu.dcache.ReadReq_mshr_hits::total         3911                       # number of ReadReq MSHR hits
system.cpu.dcache.ReadReq_mshr_misses::.cpu.data       475430                       # number of ReadReq MSHR misses
system.cpu.dcache.ReadReq_mshr_misses::total       475430                       # number of ReadReq MSHR misses
system.cpu.dcache.ReadReq_mshr_miss_latency::.cpu.data  13118695000                       # number of ReadReq MSHR miss cycles
system.cpu.dcache.ReadReq_mshr_miss_latency::total  13118695000                       # number of ReadReq MSHR miss cycles
system.cpu.dcache.ReadReq_mshr_miss_rate::.cpu.data     0.011553                       # mshr miss rate for ReadReq accesses
system.cpu.dcache.ReadReq_mshr_miss_rate::total     0.011553                       # mshr miss rate for ReadReq accesses
system.cpu.dcache.ReadReq_avg_mshr_miss_latency::.cpu.data 27593.326042                       # average ReadReq mshr miss latency
system.cpu.dcache.ReadReq_avg_mshr_miss_latency::total 27593.326042                       # average ReadReq mshr miss latency
system.cpu.dcache.WriteReq_hits::.cpu.data     10484731                       # number of WriteReq hits
system.cpu.dcache.WriteReq_hits::total       10484731                       # number of WriteReq hits
system.cpu.dcache.WriteReq_misses::.cpu.data       465387                       # number of WriteReq misses
system.cpu.dcache.WriteReq_misses::total       465387                       # number of WriteReq misses
system.cpu.dcache.WriteReq_miss_latency::.cpu.data  27375325500                       # number of WriteReq miss cycles
system.cpu.dcache.WriteReq_miss_latency::total  27375325500                       # number of WriteReq miss cycles
system.cpu.dcache.WriteReq_accesses::.cpu.data     10950118                       # number of WriteReq accesses(hits+misses)
system.cpu.dcache.WriteReq_accesses::total     10950118                       # number of WriteReq accesses(hits+misses)
system.cpu.dcache.WriteReq_miss_rate::.cpu.data     0.042501                       # miss rate for WriteReq accesses
system.cpu.dcache.WriteReq_miss_rate::total     0.042501                       # miss rate for WriteReq accesses
system.cpu.dcache.WriteReq_avg_miss_latency::.cpu.data 58822.712065                       # average WriteReq miss latency
system.cpu.dcache.WriteReq_avg_miss_latency::total 58822.712065                       # average WriteReq miss latency
system.cpu.dcache.WriteReq_mshr_hits::.cpu.data       120224                       # number of WriteReq MSHR hits
system.cpu.dcache.WriteReq_mshr_hits::total       120224                       # number of WriteReq MSHR hits
system.cpu.dcache.WriteReq_mshr_misses::.cpu.data       345163                       # number of WriteReq MSHR misses
system.cpu.dcache.WriteReq_mshr_misses::total       345163                       # number of WriteReq MSHR misses
system.cpu.dcache.WriteReq_mshr_miss_latency::.cpu.data  21520944500                       # number of WriteReq MSHR miss cycles
system.cpu.dcache.WriteReq_mshr_miss_latency::total  21520944500                       # number of WriteReq MSHR miss cycles
system.cpu.dcache.WriteReq_mshr_miss_rate::.cpu.data     0.031521                       # mshr miss rate for WriteReq accesses
system.cpu.dcache.WriteReq_mshr_miss_rate::total     0.031521                       # mshr miss rate for WriteReq accesses
system.cpu.dcache.WriteReq_avg_mshr_miss_latency::.cpu.data 62350.091116                       # average WriteReq mshr miss latency
system.cpu.dcache.WriteReq_avg_mshr_miss_latency::total 62350.091116                       # average WriteReq mshr miss latency
system.cpu.dcache.SoftPFReq_hits::.cpu.data          416                       # number of SoftPFReq hits
system.cpu.dcache.SoftPFReq_hits::total           416                       # number of SoftPFReq hits
system.cpu.dcache.SoftPFReq_misses::.cpu.data         8002                       # number of SoftPFReq misses
system.cpu.dcache.SoftPFReq_misses::total         8002                       # number of SoftPFReq misses
system.cpu.dcache.SoftPFReq_accesses::.cpu.data         8418                       # number of SoftPFReq accesses(hits+misses)
system.cpu.dcache.SoftPFReq_accesses::total         8418                       # number of SoftPFReq accesses(hits+misses)
system.cpu.dcache.SoftPFReq_miss_rate::.cpu.data     0.950582                       # miss rate for SoftPFReq accesses
system.cpu.dcache.SoftPFReq_miss_rate::total     0.950582                       # miss rate for SoftPFReq accesses
system.cpu.dcache.SoftPFReq_mshr_misses::.cpu.data         8002                       # number of SoftPFReq MSHR misses
system.cpu.dcache.SoftPFReq_mshr_misses::total         8002                       # number of SoftPFReq MSHR misses
system.cpu.dcache.SoftPFReq_mshr_miss_latency::.cpu.data    637098499                       # number of SoftPFReq MSHR miss cycles
system.cpu.dcache.SoftPFReq_mshr_miss_latency::total    637098499                       # number of SoftPFReq MSHR miss cycles
system.cpu.dcache.SoftPFReq_mshr_miss_rate::.cpu.data     0.950582                       # mshr miss rate for SoftPFReq accesses
system.cpu.dcache.SoftPFReq_mshr_miss_rate::total     0.950582                       # mshr miss rate for SoftPFReq accesses
system.cpu.dcache.SoftPFReq_avg_mshr_miss_latency::.cpu.data 79617.408023                       # average SoftPFReq mshr miss latency
system.cpu.dcache.SoftPFReq_avg_mshr_miss_latency::total 79617.408023                       # average SoftPFReq mshr miss latency
system.cpu.dcache.LoadLockedReq_hits::.cpu.data           37                       # number of LoadLockedReq hits
system.cpu.dcache.LoadLockedReq_hits::total           37                       # number of LoadLockedReq hits
system.cpu.dcache.LoadLockedReq_misses::.cpu.data            1                       # number of LoadLockedReq misses
system.cpu.dcache.LoadLockedReq_misses::total            1                       # number of LoadLockedReq misses
system.cpu.dcache.LoadLockedReq_miss_latency::.cpu.data        72500                       # number of LoadLockedReq miss cycles
system.cpu.dcache.LoadLockedReq_miss_latency::total        72500                       # number of LoadLockedReq miss cycles
system.cpu.dcache.LoadLockedReq_accesses::.cpu.data           38                       # number of LoadLockedReq accesses(hits+misses)
system.cpu.dcache.LoadLockedReq_accesses::total           38                       # number of LoadLockedReq accesses(hits+misses)
system.cpu.dcache.LoadLockedReq_miss_rate::.cpu.data     0.026316                       # miss rate for LoadLockedReq accesses
system.cpu.dcache.LoadLockedReq_miss_rate::total     0.026316                       # miss rate for LoadLockedReq accesses
system.cpu.dcache.LoadLockedReq_avg_miss_latency::.cpu.data        72500                       # average LoadLockedReq miss latency
system.cpu.dcache.LoadLockedReq_avg_miss_latency::total        72500                       # average LoadLockedReq miss latency
system.cpu.dcache.LoadLockedReq_mshr_misses::.cpu.data            1                       # number of LoadLockedReq MSHR misses
system.cpu.dcache.LoadLockedReq_mshr_misses::total            1                       # number of LoadLockedReq MSHR misses
system.cpu.dcache.LoadLockedReq_mshr_miss_latency::.cpu.data        71500                       # number of LoadLockedReq MSHR miss cycles
system.cpu.dcache.LoadLockedReq_mshr_miss_latency::total        71500                       # number of LoadLockedReq MSHR miss cycles
system.cpu.dcache.LoadLockedReq_mshr_miss_rate::.cpu.data     0.026316                       # mshr miss rate for LoadLockedReq accesses
system.cpu.dcache.LoadLockedReq_mshr_miss_rate::total     0.026316                       # mshr miss rate for LoadLockedReq accesses
system.cpu.dcache.LoadLockedReq_avg_mshr_miss_latency::.cpu.data        71500                       # average LoadLockedReq mshr miss latency
system.cpu.dcache.LoadLockedReq_avg_mshr_miss_latency::total        71500                       # average LoadLockedReq mshr miss latency
system.cpu.dcache.StoreCondReq_hits::.cpu.data           38                       # number of StoreCondReq hits
system.cpu.dcache.StoreCondReq_hits::total           38                       # number of StoreCondReq hits
system.cpu.dcache.StoreCondReq_accesses::.cpu.data           38                       # number of StoreCondReq accesses(hits+misses)
system.cpu.dcache.StoreCondReq_accesses::total           38                       # number of StoreCondReq accesses(hits+misses)
system.cpu.dcache.tags.pwrStateResidencyTicks::UNDEFINED  92629038500                       # Cumulative time (in ticks) in various power states
system.cpu.dcache.tags.tagsinuse          2016.011189                       # Cycle average of tags in use
system.cpu.dcache.tags.total_refs            51986488                       # Total number of references to valid blocks.
system.cpu.dcache.tags.sampled_refs            828595                       # Sample count of references to valid blocks.
system.cpu.dcache.tags.avg_refs             62.740528                       # Average number of references to valid blocks.
system.cpu.dcache.tags.warmup_cycle            176500                       # Cycle when the warmup percentage was hit.
system.cpu.dcache.tags.occ_blocks::.cpu.data  2016.011189                       # Average occupied blocks per requestor
system.cpu.dcache.tags.occ_percent::.cpu.data     0.984380                       # Average percentage of cache occupancy
system.cpu.dcache.tags.occ_percent::total     0.984380                       # Average percentage of cache occupancy
system.cpu.dcache.tags.occ_task_id_blocks::1024         2048                       # Occupied blocks per task id
system.cpu.dcache.tags.age_task_id_blocks_1024::0          200                       # Occupied blocks per task id
system.cpu.dcache.tags.age_task_id_blocks_1024::1          527                       # Occupied blocks per task id
system.cpu.dcache.tags.age_task_id_blocks_1024::2         1280                       # Occupied blocks per task id
system.cpu.dcache.tags.age_task_id_blocks_1024::3           40                       # Occupied blocks per task id
system.cpu.dcache.tags.age_task_id_blocks_1024::4            1                       # Occupied blocks per task id
system.cpu.dcache.tags.occ_task_id_percent::1024            1                       # Percentage of cache occupancy per task id
system.cpu.dcache.tags.tag_accesses         105049843                       # Number of tag accesses
system.cpu.dcache.tags.data_accesses        105049843                       # Number of data accesses
system.cpu.itb.walker.pwrStateResidencyTicks::UNDEFINED  92629038500                       # Cumulative time (in ticks) in various power states
system.cpu.itb.stage2_mmu.stage2_tlb.walker.pwrStateResidencyTicks::UNDEFINED  92629038500                       # Cumulative time (in ticks) in various power states

---------- End Simulation Statistics   ----------
