
---------- Begin Simulation Statistics ----------
final_tick                                66482576500                       # Number of ticks from beginning of simulation (restored from checkpoints and never reset)
host_inst_rate                                 211227                       # Simulator instruction rate (inst/s)
host_mem_usage                                 686744                       # Number of bytes of host memory used
host_op_rate                                   231150                       # Simulator op (including micro ops) rate (op/s)
host_seconds                                   473.42                       # Real time elapsed on the host
host_tick_rate                              140429275                       # Simulator tick rate (ticks/s)
sim_freq                                 1000000000000                       # Frequency of simulated ticks
sim_insts                                   100000001                       # Number of instructions simulated
sim_ops                                     109431951                       # Number of ops (including micro ops) simulated
sim_seconds                                  0.066483                       # Number of seconds simulated
sim_ticks                                 66482576500                       # Number of ticks simulated
system.cpu.branchPred.BTBCorrect                    0                       # Number of correct BTB predictions (this stat may not work properly.
system.cpu.branchPred.BTBHitPct             87.606126                       # BTB Hit Percentage
system.cpu.branchPred.BTBHits                 8698930                       # Number of BTB hits
system.cpu.branchPred.BTBLookups              9929591                       # Number of BTB lookups
system.cpu.branchPred.RASInCorrect                348                       # Number of incorrect RAS predictions.
system.cpu.branchPred.condIncorrect            154854                       # Number of conditional branches incorrect
system.cpu.branchPred.condPredicted          16493168                       # Number of conditional branches predicted
system.cpu.branchPred.indirectHits             300029                       # Number of indirect target hits.
system.cpu.branchPred.indirectLookups          523192                       # Number of indirect predictor lookups.
system.cpu.branchPred.indirectMisses           223163                       # Number of indirect misses.
system.cpu.branchPred.lookups                20555676                       # Number of BP lookups
system.cpu.branchPred.usedRAS                 1050649                       # Number of times the RAS was used to get a target.
system.cpu.branchPredindirectMispredicted         1040                       # Number of mispredicted indirect branches.
system.cpu.committedInsts                   100000001                       # Number of instructions committed
system.cpu.committedOps                     109431951                       # Number of ops (including micro ops) committed
system.cpu.cpi                               1.329652                       # CPI: cycles per instruction
system.cpu.discardedOps                        719806                       # Number of ops (including micro ops) which were discarded before commit
system.cpu.dtb.accesses                             0                       # DTB accesses
system.cpu.dtb.align_faults                         0                       # Number of TLB faults due to alignment restrictions
system.cpu.dtb.domain_faults                        0                       # Number of TLB faults due to domain restrictions
system.cpu.dtb.flush_entries                        0                       # Number of entries that have been flushed from TLB
system.cpu.dtb.flush_tlb                            0                       # Number of times complete TLB was flushed
system.cpu.dtb.flush_tlb_asid                       0                       # Number of times TLB was flushed by ASID
system.cpu.dtb.flush_tlb_mva                        0                       # Number of times TLB was flushed by MVA
system.cpu.dtb.flush_tlb_mva_asid                   0                       # Number of times TLB was flushed by MVA & ASID
system.cpu.dtb.hits                                 0                       # DTB hits
system.cpu.dtb.inst_accesses                        0                       # ITB inst accesses
system.cpu.dtb.inst_hits                            0                       # ITB inst hits
system.cpu.dtb.inst_misses                          0                       # ITB inst misses
system.cpu.dtb.misses                               0                       # DTB misses
system.cpu.dtb.perms_faults                         0                       # Number of TLB faults due to permissions restrictions
system.cpu.dtb.prefetch_faults                      0                       # Number of TLB faults due to prefetch
system.cpu.dtb.read_accesses                        0                       # DTB read accesses
system.cpu.dtb.read_hits                            0                       # DTB read hits
system.cpu.dtb.read_misses                          0                       # DTB read misses
system.cpu.dtb.stage2_mmu.stage2_tlb.accesses            0                       # DTB accesses
system.cpu.dtb.stage2_mmu.stage2_tlb.align_faults            0                       # Number of TLB faults due to alignment restrictions
system.cpu.dtb.stage2_mmu.stage2_tlb.domain_faults            0                       # Number of TLB faults due to domain restrictions
system.cpu.dtb.stage2_mmu.stage2_tlb.flush_entries            0                       # Number of entries that have been flushed from TLB
system.cpu.dtb.stage2_mmu.stage2_tlb.flush_tlb            0                       # Number of times complete TLB was flushed
system.cpu.dtb.stage2_mmu.stage2_tlb.flush_tlb_asid            0                       # Number of times TLB was flushed by ASID
system.cpu.dtb.stage2_mmu.stage2_tlb.flush_tlb_mva            0                       # Number of times TLB was flushed by MVA
system.cpu.dtb.stage2_mmu.stage2_tlb.flush_tlb_mva_asid            0                       # Number of times TLB was flushed by MVA & ASID
system.cpu.dtb.stage2_mmu.stage2_tlb.hits            0                       # DTB hits
system.cpu.dtb.stage2_mmu.stage2_tlb.inst_accesses            0                       # ITB inst accesses
system.cpu.dtb.stage2_mmu.stage2_tlb.inst_hits            0                       # ITB inst hits
system.cpu.dtb.stage2_mmu.stage2_tlb.inst_misses            0                       # ITB inst misses
system.cpu.dtb.stage2_mmu.stage2_tlb.misses            0                       # DTB misses
system.cpu.dtb.stage2_mmu.stage2_tlb.perms_faults            0                       # Number of TLB faults due to permissions restrictions
system.cpu.dtb.stage2_mmu.stage2_tlb.prefetch_faults            0                       # Number of TLB faults due to prefetch
system.cpu.dtb.stage2_mmu.stage2_tlb.read_accesses            0                       # DTB read accesses
system.cpu.dtb.stage2_mmu.stage2_tlb.read_hits            0                       # DTB read hits
system.cpu.dtb.stage2_mmu.stage2_tlb.read_misses            0                       # DTB read misses
system.cpu.dtb.stage2_mmu.stage2_tlb.walker.walkRequestOrigin_Requested::Data            0                       # Table walker requests started/completed, data/inst
system.cpu.dtb.stage2_mmu.stage2_tlb.walker.walkRequestOrigin_Requested::Inst            0                       # Table walker requests started/completed, data/inst
system.cpu.dtb.stage2_mmu.stage2_tlb.walker.walkRequestOrigin_Requested::total            0                       # Table walker requests started/completed, data/inst
system.cpu.dtb.stage2_mmu.stage2_tlb.walker.walkRequestOrigin_Completed::Data            0                       # Table walker requests started/completed, data/inst
system.cpu.dtb.stage2_mmu.stage2_tlb.walker.walkRequestOrigin_Completed::Inst            0                       # Table walker requests started/completed, data/inst
system.cpu.dtb.stage2_mmu.stage2_tlb.walker.walkRequestOrigin_Completed::total            0                       # Table walker requests started/completed, data/inst
system.cpu.dtb.stage2_mmu.stage2_tlb.walker.walkRequestOrigin::total            0                       # Table walker requests started/completed, data/inst
system.cpu.dtb.stage2_mmu.stage2_tlb.walker.walks            0                       # Table walker walks requested
system.cpu.dtb.stage2_mmu.stage2_tlb.write_accesses            0                       # DTB write accesses
system.cpu.dtb.stage2_mmu.stage2_tlb.write_hits            0                       # DTB write hits
system.cpu.dtb.stage2_mmu.stage2_tlb.write_misses            0                       # DTB write misses
system.cpu.dtb.walker.walkRequestOrigin_Requested::Data            0                       # Table walker requests started/completed, data/inst
system.cpu.dtb.walker.walkRequestOrigin_Requested::Inst            0                       # Table walker requests started/completed, data/inst
system.cpu.dtb.walker.walkRequestOrigin_Requested::total            0                       # Table walker requests started/completed, data/inst
system.cpu.dtb.walker.walkRequestOrigin_Completed::Data            0                       # Table walker requests started/completed, data/inst
system.cpu.dtb.walker.walkRequestOrigin_Completed::Inst            0                       # Table walker requests started/completed, data/inst
system.cpu.dtb.walker.walkRequestOrigin_Completed::total            0                       # Table walker requests started/completed, data/inst
system.cpu.dtb.walker.walkRequestOrigin::total            0                       # Table walker requests started/completed, data/inst
system.cpu.dtb.walker.walks                         0                       # Table walker walks requested
system.cpu.dtb.write_accesses                       0                       # DTB write accesses
system.cpu.dtb.write_hits                           0                       # DTB write hits
system.cpu.dtb.write_misses                         0                       # DTB write misses
system.cpu.fetch2.amo_instructions                  0                       # Number of memory atomic instructions successfully decoded
system.cpu.fetch2.fp_instructions                   0                       # Number of floating point instructions successfully decoded
system.cpu.fetch2.int_instructions           49721580                       # Number of integer instructions successfully decoded
system.cpu.fetch2.load_instructions          17195217                       # Number of memory load instructions successfully decoded
system.cpu.fetch2.store_instructions          9989239                       # Number of memory store instructions successfully decoded
system.cpu.fetch2.vec_instructions                  0                       # Number of SIMD instructions successfully decoded
system.cpu.idleCycles                        15057408                       # Total number of cycles that the object has spent stopped
system.cpu.ipc                               0.752077                       # IPC: instructions per cycle
system.cpu.itb.accesses                             0                       # DTB accesses
system.cpu.itb.align_faults                         0                       # Number of TLB faults due to alignment restrictions
system.cpu.itb.domain_faults                        0                       # Number of TLB faults due to domain restrictions
system.cpu.itb.flush_entries                        0                       # Number of entries that have been flushed from TLB
system.cpu.itb.flush_tlb                            0                       # Number of times complete TLB was flushed
system.cpu.itb.flush_tlb_asid                       0                       # Number of times TLB was flushed by ASID
system.cpu.itb.flush_tlb_mva                        0                       # Number of times TLB was flushed by MVA
system.cpu.itb.flush_tlb_mva_asid                   0                       # Number of times TLB was flushed by MVA & ASID
system.cpu.itb.hits                                 0                       # DTB hits
system.cpu.itb.inst_accesses                        0                       # ITB inst accesses
system.cpu.itb.inst_hits                            0                       # ITB inst hits
system.cpu.itb.inst_misses                          0                       # ITB inst misses
system.cpu.itb.misses                               0                       # DTB misses
system.cpu.itb.perms_faults                         0                       # Number of TLB faults due to permissions restrictions
system.cpu.itb.prefetch_faults                      0                       # Number of TLB faults due to prefetch
system.cpu.itb.read_accesses                        0                       # DTB read accesses
system.cpu.itb.read_hits                            0                       # DTB read hits
system.cpu.itb.read_misses                          0                       # DTB read misses
system.cpu.itb.stage2_mmu.stage2_tlb.accesses            0                       # DTB accesses
system.cpu.itb.stage2_mmu.stage2_tlb.align_faults            0                       # Number of TLB faults due to alignment restrictions
system.cpu.itb.stage2_mmu.stage2_tlb.domain_faults            0                       # Number of TLB faults due to domain restrictions
system.cpu.itb.stage2_mmu.stage2_tlb.flush_entries            0                       # Number of entries that have been flushed from TLB
system.cpu.itb.stage2_mmu.stage2_tlb.flush_tlb            0                       # Number of times complete TLB was flushed
system.cpu.itb.stage2_mmu.stage2_tlb.flush_tlb_asid            0                       # Number of times TLB was flushed by ASID
system.cpu.itb.stage2_mmu.stage2_tlb.flush_tlb_mva            0                       # Number of times TLB was flushed by MVA
system.cpu.itb.stage2_mmu.stage2_tlb.flush_tlb_mva_asid            0                       # Number of times TLB was flushed by MVA & ASID
system.cpu.itb.stage2_mmu.stage2_tlb.hits            0                       # DTB hits
system.cpu.itb.stage2_mmu.stage2_tlb.inst_accesses            0                       # ITB inst accesses
system.cpu.itb.stage2_mmu.stage2_tlb.inst_hits            0                       # ITB inst hits
system.cpu.itb.stage2_mmu.stage2_tlb.inst_misses            0                       # ITB inst misses
system.cpu.itb.stage2_mmu.stage2_tlb.misses            0                       # DTB misses
system.cpu.itb.stage2_mmu.stage2_tlb.perms_faults            0                       # Number of TLB faults due to permissions restrictions
system.cpu.itb.stage2_mmu.stage2_tlb.prefetch_faults            0                       # Number of TLB faults due to prefetch
system.cpu.itb.stage2_mmu.stage2_tlb.read_accesses            0                       # DTB read accesses
system.cpu.itb.stage2_mmu.stage2_tlb.read_hits            0                       # DTB read hits
system.cpu.itb.stage2_mmu.stage2_tlb.read_misses            0                       # DTB read misses
system.cpu.itb.stage2_mmu.stage2_tlb.walker.walkRequestOrigin_Requested::Data            0                       # Table walker requests started/completed, data/inst
system.cpu.itb.stage2_mmu.stage2_tlb.walker.walkRequestOrigin_Requested::Inst            0                       # Table walker requests started/completed, data/inst
system.cpu.itb.stage2_mmu.stage2_tlb.walker.walkRequestOrigin_Requested::total            0                       # Table walker requests started/completed, data/inst
system.cpu.itb.stage2_mmu.stage2_tlb.walker.walkRequestOrigin_Completed::Data            0                       # Table walker requests started/completed, data/inst
system.cpu.itb.stage2_mmu.stage2_tlb.walker.walkRequestOrigin_Completed::Inst            0                       # Table walker requests started/completed, data/inst
system.cpu.itb.stage2_mmu.stage2_tlb.walker.walkRequestOrigin_Completed::total            0                       # Table walker requests started/completed, data/inst
system.cpu.itb.stage2_mmu.stage2_tlb.walker.walkRequestOrigin::total            0                       # Table walker requests started/completed, data/inst
system.cpu.itb.stage2_mmu.stage2_tlb.walker.walks            0                       # Table walker walks requested
system.cpu.itb.stage2_mmu.stage2_tlb.write_accesses            0                       # DTB write accesses
system.cpu.itb.stage2_mmu.stage2_tlb.write_hits            0                       # DTB write hits
system.cpu.itb.stage2_mmu.stage2_tlb.write_misses            0                       # DTB write misses
system.cpu.itb.walker.walkRequestOrigin_Requested::Data            0                       # Table walker requests started/completed, data/inst
system.cpu.itb.walker.walkRequestOrigin_Requested::Inst            0                       # Table walker requests started/completed, data/inst
system.cpu.itb.walker.walkRequestOrigin_Requested::total            0                       # Table walker requests started/completed, data/inst
system.cpu.itb.walker.walkRequestOrigin_Completed::Data            0                       # Table walker requests started/completed, data/inst
system.cpu.itb.walker.walkRequestOrigin_Completed::Inst            0                       # Table walker requests started/completed, data/inst
system.cpu.itb.walker.walkRequestOrigin_Completed::total            0                       # Table walker requests started/completed, data/inst
system.cpu.itb.walker.walkRequestOrigin::total            0                       # Table walker requests started/completed, data/inst
system.cpu.itb.walker.walks                         0                       # Table walker walks requested
system.cpu.itb.write_accesses                       0                       # DTB write accesses
system.cpu.itb.write_hits                           0                       # DTB write hits
system.cpu.itb.write_misses                         0                       # DTB write misses
system.cpu.numCycles                        132965153                       # number of cpu cycles simulated
system.cpu.numFetchSuspends                         0                       # Number of times Execute suspended instruction fetching
system.cpu.numWorkItemsCompleted                    0                       # number of work items this cpu completed
system.cpu.numWorkItemsStarted                      0                       # number of work items this cpu started
system.cpu.op_class_0::No_OpClass                   0      0.00%      0.00% # Class of committed instruction
system.cpu.op_class_0::IntAlu                72955311     66.67%     66.67% # Class of committed instruction
system.cpu.op_class_0::IntMult                 568365      0.52%     67.19% # Class of committed instruction
system.cpu.op_class_0::IntDiv                       0      0.00%     67.19% # Class of committed instruction
system.cpu.op_class_0::FloatAdd                     0      0.00%     67.19% # Class of committed instruction
system.cpu.op_class_0::FloatCmp                     0      0.00%     67.19% # Class of committed instruction
system.cpu.op_class_0::FloatCvt                     0      0.00%     67.19% # Class of committed instruction
system.cpu.op_class_0::FloatMult                    0      0.00%     67.19% # Class of committed instruction
system.cpu.op_class_0::FloatMultAcc                 0      0.00%     67.19% # Class of committed instruction
system.cpu.op_class_0::FloatDiv                     0      0.00%     67.19% # Class of committed instruction
system.cpu.op_class_0::FloatMisc                    0      0.00%     67.19% # Class of committed instruction
system.cpu.op_class_0::FloatSqrt                    0      0.00%     67.19% # Class of committed instruction
system.cpu.op_class_0::SimdAdd                 241252      0.22%     67.41% # Class of committed instruction
system.cpu.op_class_0::SimdAddAcc                   0      0.00%     67.41% # Class of committed instruction
system.cpu.op_class_0::SimdAlu                 154720      0.14%     67.55% # Class of committed instruction
system.cpu.op_class_0::SimdCmp                 120626      0.11%     67.66% # Class of committed instruction
system.cpu.op_class_0::SimdCvt                      0      0.00%     67.66% # Class of committed instruction
system.cpu.op_class_0::SimdMisc                 44544      0.04%     67.70% # Class of committed instruction
system.cpu.op_class_0::SimdMult                     0      0.00%     67.70% # Class of committed instruction
system.cpu.op_class_0::SimdMultAcc                  0      0.00%     67.70% # Class of committed instruction
system.cpu.op_class_0::SimdShift                    0      0.00%     67.70% # Class of committed instruction
system.cpu.op_class_0::SimdShiftAcc                 0      0.00%     67.70% # Class of committed instruction
system.cpu.op_class_0::SimdDiv                      0      0.00%     67.70% # Class of committed instruction
system.cpu.op_class_0::SimdSqrt                     0      0.00%     67.70% # Class of committed instruction
system.cpu.op_class_0::SimdFloatAdd                 0      0.00%     67.70% # Class of committed instruction
system.cpu.op_class_0::SimdFloatAlu                 0      0.00%     67.70% # Class of committed instruction
system.cpu.op_class_0::SimdFloatCmp                 0      0.00%     67.70% # Class of committed instruction
system.cpu.op_class_0::SimdFloatCvt                 0      0.00%     67.70% # Class of committed instruction
system.cpu.op_class_0::SimdFloatDiv                 0      0.00%     67.70% # Class of committed instruction
system.cpu.op_class_0::SimdFloatMisc           166465      0.15%     67.85% # Class of committed instruction
system.cpu.op_class_0::SimdFloatMult                0      0.00%     67.85% # Class of committed instruction
system.cpu.op_class_0::SimdFloatMultAcc             0      0.00%     67.85% # Class of committed instruction
system.cpu.op_class_0::SimdFloatSqrt                0      0.00%     67.85% # Class of committed instruction
system.cpu.op_class_0::SimdReduceAdd                0      0.00%     67.85% # Class of committed instruction
system.cpu.op_class_0::SimdReduceAlu                0      0.00%     67.85% # Class of committed instruction
system.cpu.op_class_0::SimdReduceCmp                0      0.00%     67.85% # Class of committed instruction
system.cpu.op_class_0::SimdFloatReduceAdd            0      0.00%     67.85% # Class of committed instruction
system.cpu.op_class_0::SimdFloatReduceCmp            0      0.00%     67.85% # Class of committed instruction
system.cpu.op_class_0::SimdAes                      0      0.00%     67.85% # Class of committed instruction
system.cpu.op_class_0::SimdAesMix                   0      0.00%     67.85% # Class of committed instruction
system.cpu.op_class_0::SimdSha1Hash                 0      0.00%     67.85% # Class of committed instruction
system.cpu.op_class_0::SimdSha1Hash2                0      0.00%     67.85% # Class of committed instruction
system.cpu.op_class_0::SimdSha256Hash               0      0.00%     67.85% # Class of committed instruction
system.cpu.op_class_0::SimdSha256Hash2              0      0.00%     67.85% # Class of committed instruction
system.cpu.op_class_0::SimdShaSigma2                0      0.00%     67.85% # Class of committed instruction
system.cpu.op_class_0::SimdShaSigma3                0      0.00%     67.85% # Class of committed instruction
system.cpu.op_class_0::SimdPredAlu                  0      0.00%     67.85% # Class of committed instruction
system.cpu.op_class_0::MemRead               20646465     18.87%     86.72% # Class of committed instruction
system.cpu.op_class_0::MemWrite              14534203     13.28%    100.00% # Class of committed instruction
system.cpu.op_class_0::FloatMemRead                 0      0.00%    100.00% # Class of committed instruction
system.cpu.op_class_0::FloatMemWrite                0      0.00%    100.00% # Class of committed instruction
system.cpu.op_class_0::IprAccess                    0      0.00%    100.00% # Class of committed instruction
system.cpu.op_class_0::InstPrefetch                 0      0.00%    100.00% # Class of committed instruction
system.cpu.op_class_0::total                109431951                       # Class of committed instruction
system.cpu.tickCycles                       117907745                       # Number of cycles that the object actually ticked
system.cpu.workload.numSyscalls                    87                       # Number of system calls
system.membus.snoop_filter.hit_multi_requests            0                       # Number of requests hitting in the snoop filter with multiple (>1) holders of the requested data.
system.membus.snoop_filter.hit_multi_snoops            0                       # Number of snoops hitting in the snoop filter with multiple (>1) holders of the requested data.
system.membus.snoop_filter.hit_single_requests         3487                       # Number of requests hitting in the snoop filter with a single holder of the requested data.
system.membus.snoop_filter.hit_single_snoops            0                       # Number of snoops hitting in the snoop filter with a single holder of the requested data.
system.membus.snoop_filter.tot_requests         23574                       # Total number of requests made to the snoop filter.
system.membus.snoop_filter.tot_snoops               0                       # Total number of snoops made to the snoop filter.
system.tol2bus.snoop_filter.hit_multi_requests         1231                       # Number of requests hitting in the snoop filter with multiple (>1) holders of the requested data.
system.tol2bus.snoop_filter.hit_multi_snoops            2                       # Number of snoops hitting in the snoop filter with multiple (>1) holders of the requested data.
system.tol2bus.snoop_filter.hit_single_requests       978338                       # Number of requests hitting in the snoop filter with a single holder of the requested data.
system.tol2bus.snoop_filter.hit_single_snoops          215                       # Number of snoops hitting in the snoop filter with a single holder of the requested data.
system.tol2bus.snoop_filter.tot_requests      1957916                       # Total number of requests made to the snoop filter.
system.tol2bus.snoop_filter.tot_snoops            217                       # Total number of snoops made to the snoop filter.
system.membus.pwrStateResidencyTicks::UNDEFINED  66482576500                       # Cumulative time (in ticks) in various power states
system.membus.trans_dist::ReadResp                675                       # Transaction distribution
system.membus.trans_dist::WritebackDirty         3341                       # Transaction distribution
system.membus.trans_dist::CleanEvict              146                       # Transaction distribution
system.membus.trans_dist::ReadExReq             19412                       # Transaction distribution
system.membus.trans_dist::ReadExResp            19412                       # Transaction distribution
system.membus.trans_dist::ReadSharedReq           675                       # Transaction distribution
system.membus.pkt_count_system.l2.mem_side::system.mem_ctrls.port        43661                       # Packet count per connected master and slave (bytes)
system.membus.pkt_count::total                  43661                       # Packet count per connected master and slave (bytes)
system.membus.pkt_size_system.l2.mem_side::system.mem_ctrls.port      2998784                       # Cumulative packet size per connected master and slave (bytes)
system.membus.pkt_size::total                 2998784                       # Cumulative packet size per connected master and slave (bytes)
system.membus.snoops                                0                       # Total snoops (count)
system.membus.snoopTraffic                          0                       # Total snoop traffic (bytes)
system.membus.snoop_fanout::samples             20087                       # Request fanout histogram
system.membus.snoop_fanout::mean                    0                       # Request fanout histogram
system.membus.snoop_fanout::stdev                   0                       # Request fanout histogram
system.membus.snoop_fanout::underflows              0      0.00%      0.00% # Request fanout histogram
system.membus.snoop_fanout::0                   20087    100.00%    100.00% # Request fanout histogram
system.membus.snoop_fanout::1                       0      0.00%    100.00% # Request fanout histogram
system.membus.snoop_fanout::overflows               0      0.00%    100.00% # Request fanout histogram
system.membus.snoop_fanout::min_value               0                       # Request fanout histogram
system.membus.snoop_fanout::max_value               0                       # Request fanout histogram
system.membus.snoop_fanout::total               20087                       # Request fanout histogram
system.membus.respLayer1.occupancy          188802750                       # Layer occupancy (ticks)
system.membus.respLayer1.utilization              0.3                       # Layer utilization (%)
system.membus.reqLayer0.occupancy            55542500                       # Layer occupancy (ticks)
system.membus.reqLayer0.utilization               0.1                       # Layer utilization (%)
system.tol2bus.pwrStateResidencyTicks::UNDEFINED  66482576500                       # Cumulative time (in ticks) in various power states
system.tol2bus.trans_dist::ReadResp            960154                       # Transaction distribution
system.tol2bus.trans_dist::WritebackDirty        32493                       # Transaction distribution
system.tol2bus.trans_dist::WritebackClean       947738                       # Transaction distribution
system.tol2bus.trans_dist::CleanEvict            1805                       # Transaction distribution
system.tol2bus.trans_dist::ReadExReq            19428                       # Transaction distribution
system.tol2bus.trans_dist::ReadExResp           19428                       # Transaction distribution
system.tol2bus.trans_dist::ReadCleanReq        947964                       # Transaction distribution
system.tol2bus.trans_dist::ReadSharedReq        12191                       # Transaction distribution
system.tol2bus.pkt_count_system.cpu.icache.mem_side::system.l2.cpu_side      2843665                       # Packet count per connected master and slave (bytes)
system.tol2bus.pkt_count_system.cpu.dcache.mem_side::system.l2.cpu_side        93833                       # Packet count per connected master and slave (bytes)
system.tol2bus.pkt_count::total               2937498                       # Packet count per connected master and slave (bytes)
system.tol2bus.pkt_size_system.cpu.icache.mem_side::system.l2.cpu_side    242649728                       # Cumulative packet size per connected master and slave (bytes)
system.tol2bus.pkt_size_system.cpu.dcache.mem_side::system.l2.cpu_side      7778688                       # Cumulative packet size per connected master and slave (bytes)
system.tol2bus.pkt_size::total              250428416                       # Cumulative packet size per connected master and slave (bytes)
system.tol2bus.snoops                            3703                       # Total snoops (count)
system.tol2bus.snoopTraffic                    427648                       # Total snoop traffic (bytes)
system.tol2bus.snoop_fanout::samples           983286                       # Request fanout histogram
system.tol2bus.snoop_fanout::mean            0.001480                       # Request fanout histogram
system.tol2bus.snoop_fanout::stdev           0.038492                       # Request fanout histogram
system.tol2bus.snoop_fanout::underflows             0      0.00%      0.00% # Request fanout histogram
system.tol2bus.snoop_fanout::0                 981833     99.85%     99.85% # Request fanout histogram
system.tol2bus.snoop_fanout::1                   1451      0.15%    100.00% # Request fanout histogram
system.tol2bus.snoop_fanout::2                      2      0.00%    100.00% # Request fanout histogram
system.tol2bus.snoop_fanout::overflows              0      0.00%    100.00% # Request fanout histogram
system.tol2bus.snoop_fanout::min_value              0                       # Request fanout histogram
system.tol2bus.snoop_fanout::max_value              2                       # Request fanout histogram
system.tol2bus.snoop_fanout::total             983286                       # Request fanout histogram
system.tol2bus.reqLayer0.occupancy         2932738000                       # Layer occupancy (ticks)
system.tol2bus.reqLayer0.utilization              4.4                       # Layer utilization (%)
system.tol2bus.respLayer1.occupancy          79049995                       # Layer occupancy (ticks)
system.tol2bus.respLayer1.utilization             0.1                       # Layer utilization (%)
system.tol2bus.respLayer0.occupancy        2369907500                       # Layer occupancy (ticks)
system.tol2bus.respLayer0.utilization             3.6                       # Layer utilization (%)
system.voltage_domain.voltage                       1                       # Voltage in Volts
system.clk_domain.clock                          1000                       # Clock period in ticks
system.l2.pwrStateResidencyTicks::UNDEFINED  66482576500                       # Cumulative time (in ticks) in various power states
system.l2.demand_hits::.cpu.inst               947629                       # number of demand (read+write) hits
system.l2.demand_hits::.cpu.data                11863                       # number of demand (read+write) hits
system.l2.demand_hits::total                   959492                       # number of demand (read+write) hits
system.l2.overall_hits::.cpu.inst              947629                       # number of overall hits
system.l2.overall_hits::.cpu.data               11863                       # number of overall hits
system.l2.overall_hits::total                  959492                       # number of overall hits
system.l2.demand_misses::.cpu.inst                335                       # number of demand (read+write) misses
system.l2.demand_misses::.cpu.data              19756                       # number of demand (read+write) misses
system.l2.demand_misses::total                  20091                       # number of demand (read+write) misses
system.l2.overall_misses::.cpu.inst               335                       # number of overall misses
system.l2.overall_misses::.cpu.data             19756                       # number of overall misses
system.l2.overall_misses::total                 20091                       # number of overall misses
system.l2.demand_miss_latency::.cpu.inst     27691000                       # number of demand (read+write) miss cycles
system.l2.demand_miss_latency::.cpu.data   1744258000                       # number of demand (read+write) miss cycles
system.l2.demand_miss_latency::total       1771949000                       # number of demand (read+write) miss cycles
system.l2.overall_miss_latency::.cpu.inst     27691000                       # number of overall miss cycles
system.l2.overall_miss_latency::.cpu.data   1744258000                       # number of overall miss cycles
system.l2.overall_miss_latency::total      1771949000                       # number of overall miss cycles
system.l2.demand_accesses::.cpu.inst           947964                       # number of demand (read+write) accesses
system.l2.demand_accesses::.cpu.data            31619                       # number of demand (read+write) accesses
system.l2.demand_accesses::total               979583                       # number of demand (read+write) accesses
system.l2.overall_accesses::.cpu.inst          947964                       # number of overall (read+write) accesses
system.l2.overall_accesses::.cpu.data           31619                       # number of overall (read+write) accesses
system.l2.overall_accesses::total              979583                       # number of overall (read+write) accesses
system.l2.demand_miss_rate::.cpu.inst        0.000353                       # miss rate for demand accesses
system.l2.demand_miss_rate::.cpu.data        0.624814                       # miss rate for demand accesses
system.l2.demand_miss_rate::total            0.020510                       # miss rate for demand accesses
system.l2.overall_miss_rate::.cpu.inst       0.000353                       # miss rate for overall accesses
system.l2.overall_miss_rate::.cpu.data       0.624814                       # miss rate for overall accesses
system.l2.overall_miss_rate::total           0.020510                       # miss rate for overall accesses
system.l2.demand_avg_miss_latency::.cpu.inst 82659.701493                       # average overall miss latency
system.l2.demand_avg_miss_latency::.cpu.data 88290.038469                       # average overall miss latency
system.l2.demand_avg_miss_latency::total 88196.157483                       # average overall miss latency
system.l2.overall_avg_miss_latency::.cpu.inst 82659.701493                       # average overall miss latency
system.l2.overall_avg_miss_latency::.cpu.data 88290.038469                       # average overall miss latency
system.l2.overall_avg_miss_latency::total 88196.157483                       # average overall miss latency
system.l2.blocked_cycles::no_mshrs                  0                       # number of cycles access was blocked
system.l2.blocked_cycles::no_targets                0                       # number of cycles access was blocked
system.l2.blocked::no_mshrs                         0                       # number of cycles access was blocked
system.l2.blocked::no_targets                       0                       # number of cycles access was blocked
system.l2.avg_blocked_cycles::no_mshrs            nan                       # average number of cycles each access was blocked
system.l2.avg_blocked_cycles::no_targets          nan                       # average number of cycles each access was blocked
system.l2.writebacks::.writebacks                3341                       # number of writebacks
system.l2.writebacks::total                      3341                       # number of writebacks
system.l2.demand_mshr_hits::.cpu.data               4                       # number of demand (read+write) MSHR hits
system.l2.demand_mshr_hits::total                   4                       # number of demand (read+write) MSHR hits
system.l2.overall_mshr_hits::.cpu.data              4                       # number of overall MSHR hits
system.l2.overall_mshr_hits::total                  4                       # number of overall MSHR hits
system.l2.demand_mshr_misses::.cpu.inst           335                       # number of demand (read+write) MSHR misses
system.l2.demand_mshr_misses::.cpu.data         19752                       # number of demand (read+write) MSHR misses
system.l2.demand_mshr_misses::total             20087                       # number of demand (read+write) MSHR misses
system.l2.overall_mshr_misses::.cpu.inst          335                       # number of overall MSHR misses
system.l2.overall_mshr_misses::.cpu.data        19752                       # number of overall MSHR misses
system.l2.overall_mshr_misses::total            20087                       # number of overall MSHR misses
system.l2.demand_mshr_miss_latency::.cpu.inst     24341000                       # number of demand (read+write) MSHR miss cycles
system.l2.demand_mshr_miss_latency::.cpu.data   1546460500                       # number of demand (read+write) MSHR miss cycles
system.l2.demand_mshr_miss_latency::total   1570801500                       # number of demand (read+write) MSHR miss cycles
system.l2.overall_mshr_miss_latency::.cpu.inst     24341000                       # number of overall MSHR miss cycles
system.l2.overall_mshr_miss_latency::.cpu.data   1546460500                       # number of overall MSHR miss cycles
system.l2.overall_mshr_miss_latency::total   1570801500                       # number of overall MSHR miss cycles
system.l2.demand_mshr_miss_rate::.cpu.inst     0.000353                       # mshr miss rate for demand accesses
system.l2.demand_mshr_miss_rate::.cpu.data     0.624688                       # mshr miss rate for demand accesses
system.l2.demand_mshr_miss_rate::total       0.020506                       # mshr miss rate for demand accesses
system.l2.overall_mshr_miss_rate::.cpu.inst     0.000353                       # mshr miss rate for overall accesses
system.l2.overall_mshr_miss_rate::.cpu.data     0.624688                       # mshr miss rate for overall accesses
system.l2.overall_mshr_miss_rate::total      0.020506                       # mshr miss rate for overall accesses
system.l2.demand_avg_mshr_miss_latency::.cpu.inst 72659.701493                       # average overall mshr miss latency
system.l2.demand_avg_mshr_miss_latency::.cpu.data 78293.868975                       # average overall mshr miss latency
system.l2.demand_avg_mshr_miss_latency::total 78199.905411                       # average overall mshr miss latency
system.l2.overall_avg_mshr_miss_latency::.cpu.inst 72659.701493                       # average overall mshr miss latency
system.l2.overall_avg_mshr_miss_latency::.cpu.data 78293.868975                       # average overall mshr miss latency
system.l2.overall_avg_mshr_miss_latency::total 78199.905411                       # average overall mshr miss latency
system.l2.replacements                           3703                       # number of replacements
system.l2.WritebackDirty_hits::.writebacks        29152                       # number of WritebackDirty hits
system.l2.WritebackDirty_hits::total            29152                       # number of WritebackDirty hits
system.l2.WritebackDirty_accesses::.writebacks        29152                       # number of WritebackDirty accesses(hits+misses)
system.l2.WritebackDirty_accesses::total        29152                       # number of WritebackDirty accesses(hits+misses)
system.l2.WritebackClean_hits::.writebacks       946542                       # number of WritebackClean hits
system.l2.WritebackClean_hits::total           946542                       # number of WritebackClean hits
system.l2.WritebackClean_accesses::.writebacks       946542                       # number of WritebackClean accesses(hits+misses)
system.l2.WritebackClean_accesses::total       946542                       # number of WritebackClean accesses(hits+misses)
system.l2.CleanEvict_mshr_misses::.writebacks            1                       # number of CleanEvict MSHR misses
system.l2.CleanEvict_mshr_misses::total             1                       # number of CleanEvict MSHR misses
system.l2.CleanEvict_mshr_miss_rate::.writebacks          inf                       # mshr miss rate for CleanEvict accesses
system.l2.CleanEvict_mshr_miss_rate::total          inf                       # mshr miss rate for CleanEvict accesses
system.l2.ReadExReq_hits::.cpu.data                16                       # number of ReadExReq hits
system.l2.ReadExReq_hits::total                    16                       # number of ReadExReq hits
system.l2.ReadExReq_misses::.cpu.data           19412                       # number of ReadExReq misses
system.l2.ReadExReq_misses::total               19412                       # number of ReadExReq misses
system.l2.ReadExReq_miss_latency::.cpu.data   1712464000                       # number of ReadExReq miss cycles
system.l2.ReadExReq_miss_latency::total    1712464000                       # number of ReadExReq miss cycles
system.l2.ReadExReq_accesses::.cpu.data         19428                       # number of ReadExReq accesses(hits+misses)
system.l2.ReadExReq_accesses::total             19428                       # number of ReadExReq accesses(hits+misses)
system.l2.ReadExReq_miss_rate::.cpu.data     0.999176                       # miss rate for ReadExReq accesses
system.l2.ReadExReq_miss_rate::total         0.999176                       # miss rate for ReadExReq accesses
system.l2.ReadExReq_avg_miss_latency::.cpu.data 88216.773130                       # average ReadExReq miss latency
system.l2.ReadExReq_avg_miss_latency::total 88216.773130                       # average ReadExReq miss latency
system.l2.ReadExReq_mshr_misses::.cpu.data        19412                       # number of ReadExReq MSHR misses
system.l2.ReadExReq_mshr_misses::total          19412                       # number of ReadExReq MSHR misses
system.l2.ReadExReq_mshr_miss_latency::.cpu.data   1518344000                       # number of ReadExReq MSHR miss cycles
system.l2.ReadExReq_mshr_miss_latency::total   1518344000                       # number of ReadExReq MSHR miss cycles
system.l2.ReadExReq_mshr_miss_rate::.cpu.data     0.999176                       # mshr miss rate for ReadExReq accesses
system.l2.ReadExReq_mshr_miss_rate::total     0.999176                       # mshr miss rate for ReadExReq accesses
system.l2.ReadExReq_avg_mshr_miss_latency::.cpu.data 78216.773130                       # average ReadExReq mshr miss latency
system.l2.ReadExReq_avg_mshr_miss_latency::total 78216.773130                       # average ReadExReq mshr miss latency
system.l2.ReadCleanReq_hits::.cpu.inst         947629                       # number of ReadCleanReq hits
system.l2.ReadCleanReq_hits::total             947629                       # number of ReadCleanReq hits
system.l2.ReadCleanReq_misses::.cpu.inst          335                       # number of ReadCleanReq misses
system.l2.ReadCleanReq_misses::total              335                       # number of ReadCleanReq misses
system.l2.ReadCleanReq_miss_latency::.cpu.inst     27691000                       # number of ReadCleanReq miss cycles
system.l2.ReadCleanReq_miss_latency::total     27691000                       # number of ReadCleanReq miss cycles
system.l2.ReadCleanReq_accesses::.cpu.inst       947964                       # number of ReadCleanReq accesses(hits+misses)
system.l2.ReadCleanReq_accesses::total         947964                       # number of ReadCleanReq accesses(hits+misses)
system.l2.ReadCleanReq_miss_rate::.cpu.inst     0.000353                       # miss rate for ReadCleanReq accesses
system.l2.ReadCleanReq_miss_rate::total      0.000353                       # miss rate for ReadCleanReq accesses
system.l2.ReadCleanReq_avg_miss_latency::.cpu.inst 82659.701493                       # average ReadCleanReq miss latency
system.l2.ReadCleanReq_avg_miss_latency::total 82659.701493                       # average ReadCleanReq miss latency
system.l2.ReadCleanReq_mshr_misses::.cpu.inst          335                       # number of ReadCleanReq MSHR misses
system.l2.ReadCleanReq_mshr_misses::total          335                       # number of ReadCleanReq MSHR misses
system.l2.ReadCleanReq_mshr_miss_latency::.cpu.inst     24341000                       # number of ReadCleanReq MSHR miss cycles
system.l2.ReadCleanReq_mshr_miss_latency::total     24341000                       # number of ReadCleanReq MSHR miss cycles
system.l2.ReadCleanReq_mshr_miss_rate::.cpu.inst     0.000353                       # mshr miss rate for ReadCleanReq accesses
system.l2.ReadCleanReq_mshr_miss_rate::total     0.000353                       # mshr miss rate for ReadCleanReq accesses
system.l2.ReadCleanReq_avg_mshr_miss_latency::.cpu.inst 72659.701493                       # average ReadCleanReq mshr miss latency
system.l2.ReadCleanReq_avg_mshr_miss_latency::total 72659.701493                       # average ReadCleanReq mshr miss latency
system.l2.ReadSharedReq_hits::.cpu.data         11847                       # number of ReadSharedReq hits
system.l2.ReadSharedReq_hits::total             11847                       # number of ReadSharedReq hits
system.l2.ReadSharedReq_misses::.cpu.data          344                       # number of ReadSharedReq misses
system.l2.ReadSharedReq_misses::total             344                       # number of ReadSharedReq misses
system.l2.ReadSharedReq_miss_latency::.cpu.data     31794000                       # number of ReadSharedReq miss cycles
system.l2.ReadSharedReq_miss_latency::total     31794000                       # number of ReadSharedReq miss cycles
system.l2.ReadSharedReq_accesses::.cpu.data        12191                       # number of ReadSharedReq accesses(hits+misses)
system.l2.ReadSharedReq_accesses::total         12191                       # number of ReadSharedReq accesses(hits+misses)
system.l2.ReadSharedReq_miss_rate::.cpu.data     0.028218                       # miss rate for ReadSharedReq accesses
system.l2.ReadSharedReq_miss_rate::total     0.028218                       # miss rate for ReadSharedReq accesses
system.l2.ReadSharedReq_avg_miss_latency::.cpu.data 92424.418605                       # average ReadSharedReq miss latency
system.l2.ReadSharedReq_avg_miss_latency::total 92424.418605                       # average ReadSharedReq miss latency
system.l2.ReadSharedReq_mshr_hits::.cpu.data            4                       # number of ReadSharedReq MSHR hits
system.l2.ReadSharedReq_mshr_hits::total            4                       # number of ReadSharedReq MSHR hits
system.l2.ReadSharedReq_mshr_misses::.cpu.data          340                       # number of ReadSharedReq MSHR misses
system.l2.ReadSharedReq_mshr_misses::total          340                       # number of ReadSharedReq MSHR misses
system.l2.ReadSharedReq_mshr_miss_latency::.cpu.data     28116500                       # number of ReadSharedReq MSHR miss cycles
system.l2.ReadSharedReq_mshr_miss_latency::total     28116500                       # number of ReadSharedReq MSHR miss cycles
system.l2.ReadSharedReq_mshr_miss_rate::.cpu.data     0.027889                       # mshr miss rate for ReadSharedReq accesses
system.l2.ReadSharedReq_mshr_miss_rate::total     0.027889                       # mshr miss rate for ReadSharedReq accesses
system.l2.ReadSharedReq_avg_mshr_miss_latency::.cpu.data 82695.588235                       # average ReadSharedReq mshr miss latency
system.l2.ReadSharedReq_avg_mshr_miss_latency::total 82695.588235                       # average ReadSharedReq mshr miss latency
system.l2.tags.pwrStateResidencyTicks::UNDEFINED  66482576500                       # Cumulative time (in ticks) in various power states
system.l2.tags.tagsinuse                 13127.104770                       # Cycle average of tags in use
system.l2.tags.total_refs                     1956680                       # Total number of references to valid blocks.
system.l2.tags.sampled_refs                     20087                       # Sample count of references to valid blocks.
system.l2.tags.avg_refs                     97.410265                       # Average number of references to valid blocks.
system.l2.tags.warmup_cycle                     82000                       # Cycle when the warmup percentage was hit.
system.l2.tags.occ_blocks::.cpu.inst       211.977750                       # Average occupied blocks per requestor
system.l2.tags.occ_blocks::.cpu.data     12915.127021                       # Average occupied blocks per requestor
system.l2.tags.occ_percent::.cpu.inst        0.012938                       # Average percentage of cache occupancy
system.l2.tags.occ_percent::.cpu.data        0.788277                       # Average percentage of cache occupancy
system.l2.tags.occ_percent::total            0.801215                       # Average percentage of cache occupancy
system.l2.tags.occ_task_id_blocks::1024         16384                       # Occupied blocks per task id
system.l2.tags.age_task_id_blocks_1024::0            1                       # Occupied blocks per task id
system.l2.tags.age_task_id_blocks_1024::1           15                       # Occupied blocks per task id
system.l2.tags.age_task_id_blocks_1024::2          174                       # Occupied blocks per task id
system.l2.tags.age_task_id_blocks_1024::3         1640                       # Occupied blocks per task id
system.l2.tags.age_task_id_blocks_1024::4        14554                       # Occupied blocks per task id
system.l2.tags.occ_task_id_percent::1024            1                       # Percentage of cache occupancy per task id
system.l2.tags.tag_accesses                  15673567                       # Number of tag accesses
system.l2.tags.data_accesses                 15673567                       # Number of data accesses
system.cpu_voltage_domain.voltage                   1                       # Voltage in Volts
system.mem_ctrls.pwrStateResidencyTicks::UNDEFINED  66482576500                       # Cumulative time (in ticks) in various power states
system.mem_ctrls.bytes_read::.cpu.inst          42880                       # Number of bytes read from this memory
system.mem_ctrls.bytes_read::.cpu.data        2528256                       # Number of bytes read from this memory
system.mem_ctrls.bytes_read::total            2571136                       # Number of bytes read from this memory
system.mem_ctrls.bytes_inst_read::.cpu.inst        42880                       # Number of instructions bytes read from this memory
system.mem_ctrls.bytes_inst_read::total         42880                       # Number of instructions bytes read from this memory
system.mem_ctrls.bytes_written::.writebacks       427648                       # Number of bytes written to this memory
system.mem_ctrls.bytes_written::total          427648                       # Number of bytes written to this memory
system.mem_ctrls.num_reads::.cpu.inst             335                       # Number of read requests responded to by this memory
system.mem_ctrls.num_reads::.cpu.data           19752                       # Number of read requests responded to by this memory
system.mem_ctrls.num_reads::total               20087                       # Number of read requests responded to by this memory
system.mem_ctrls.num_writes::.writebacks         3341                       # Number of write requests responded to by this memory
system.mem_ctrls.num_writes::total               3341                       # Number of write requests responded to by this memory
system.mem_ctrls.bw_read::.cpu.inst            644981                       # Total read bandwidth from this memory (bytes/s)
system.mem_ctrls.bw_read::.cpu.data          38028851                       # Total read bandwidth from this memory (bytes/s)
system.mem_ctrls.bw_read::total              38673832                       # Total read bandwidth from this memory (bytes/s)
system.mem_ctrls.bw_inst_read::.cpu.inst       644981                       # Instruction read bandwidth from this memory (bytes/s)
system.mem_ctrls.bw_inst_read::total           644981                       # Instruction read bandwidth from this memory (bytes/s)
system.mem_ctrls.bw_write::.writebacks        6432482                       # Write bandwidth from this memory (bytes/s)
system.mem_ctrls.bw_write::total              6432482                       # Write bandwidth from this memory (bytes/s)
system.mem_ctrls.bw_total::.writebacks        6432482                       # Total bandwidth to/from this memory (bytes/s)
system.mem_ctrls.bw_total::.cpu.inst           644981                       # Total bandwidth to/from this memory (bytes/s)
system.mem_ctrls.bw_total::.cpu.data         38028851                       # Total bandwidth to/from this memory (bytes/s)
system.mem_ctrls.bw_total::total             45106314                       # Total bandwidth to/from this memory (bytes/s)
system.mem_ctrls.avgPriority_.writebacks::samples      6682.00                       # Average QoS priority value for accepted requests
system.mem_ctrls.avgPriority_.cpu.inst::samples       670.00                       # Average QoS priority value for accepted requests
system.mem_ctrls.avgPriority_.cpu.data::samples     39504.00                       # Average QoS priority value for accepted requests
system.mem_ctrls.priorityMinLatency      0.000000018750                       # per QoS priority minimum request to response latency (s)
system.mem_ctrls.priorityMaxLatency      0.017989662500                       # per QoS priority maximum request to response latency (s)
system.mem_ctrls.numReadWriteTurnArounds          370                       # Number of turnarounds from READ to WRITE
system.mem_ctrls.numWriteReadTurnArounds          370                       # Number of turnarounds from WRITE to READ
system.mem_ctrls.numStayReadState               80644                       # Number of times bus staying in READ state
system.mem_ctrls.numStayWriteState               6321                       # Number of times bus staying in WRITE state
system.mem_ctrls.readReqs                       20087                       # Number of read requests accepted
system.mem_ctrls.writeReqs                       3341                       # Number of write requests accepted
system.mem_ctrls.readBursts                     40174                       # Number of DRAM read bursts, including those serviced by the write queue
system.mem_ctrls.writeBursts                     6682                       # Number of DRAM write bursts, including those merged in the write queue
system.mem_ctrls.servicedByWrQ                      0                       # Number of DRAM read bursts serviced by the write queue
system.mem_ctrls.mergedWrBursts                     0                       # Number of DRAM write bursts merged with an existing one
system.mem_ctrls.neitherReadNorWriteReqs            0                       # Number of requests that are neither read nor write
system.mem_ctrls.perBankRdBursts::0              2494                       # Per bank write bursts
system.mem_ctrls.perBankRdBursts::1              2384                       # Per bank write bursts
system.mem_ctrls.perBankRdBursts::2              2366                       # Per bank write bursts
system.mem_ctrls.perBankRdBursts::3              2654                       # Per bank write bursts
system.mem_ctrls.perBankRdBursts::4              2706                       # Per bank write bursts
system.mem_ctrls.perBankRdBursts::5              2464                       # Per bank write bursts
system.mem_ctrls.perBankRdBursts::6              2442                       # Per bank write bursts
system.mem_ctrls.perBankRdBursts::7              2484                       # Per bank write bursts
system.mem_ctrls.perBankRdBursts::8              2476                       # Per bank write bursts
system.mem_ctrls.perBankRdBursts::9              2522                       # Per bank write bursts
system.mem_ctrls.perBankRdBursts::10             2512                       # Per bank write bursts
system.mem_ctrls.perBankRdBursts::11             2534                       # Per bank write bursts
system.mem_ctrls.perBankRdBursts::12             2540                       # Per bank write bursts
system.mem_ctrls.perBankRdBursts::13             2486                       # Per bank write bursts
system.mem_ctrls.perBankRdBursts::14             2594                       # Per bank write bursts
system.mem_ctrls.perBankRdBursts::15             2516                       # Per bank write bursts
system.mem_ctrls.perBankWrBursts::0               371                       # Per bank write bursts
system.mem_ctrls.perBankWrBursts::1               300                       # Per bank write bursts
system.mem_ctrls.perBankWrBursts::2               296                       # Per bank write bursts
system.mem_ctrls.perBankWrBursts::3               508                       # Per bank write bursts
system.mem_ctrls.perBankWrBursts::4               630                       # Per bank write bursts
system.mem_ctrls.perBankWrBursts::5               414                       # Per bank write bursts
system.mem_ctrls.perBankWrBursts::6               394                       # Per bank write bursts
system.mem_ctrls.perBankWrBursts::7               412                       # Per bank write bursts
system.mem_ctrls.perBankWrBursts::8               402                       # Per bank write bursts
system.mem_ctrls.perBankWrBursts::9               420                       # Per bank write bursts
system.mem_ctrls.perBankWrBursts::10              420                       # Per bank write bursts
system.mem_ctrls.perBankWrBursts::11              404                       # Per bank write bursts
system.mem_ctrls.perBankWrBursts::12              412                       # Per bank write bursts
system.mem_ctrls.perBankWrBursts::13              410                       # Per bank write bursts
system.mem_ctrls.perBankWrBursts::14              454                       # Per bank write bursts
system.mem_ctrls.perBankWrBursts::15              418                       # Per bank write bursts
system.mem_ctrls.avgRdQLen                       2.01                       # Average read queue length when enqueuing
system.mem_ctrls.avgWrQLen                      13.71                       # Average write queue length when enqueuing
system.mem_ctrls.totQLat                    634026750                       # Total ticks spent queuing
system.mem_ctrls.totBusLat                  200870000                       # Total ticks spent in databus transfers
system.mem_ctrls.totMemAccLat              1387289250                       # Total ticks spent from burst creation until serviced by the DRAM
system.mem_ctrls.avgQLat                     15782.02                       # Average queueing delay per DRAM burst
system.mem_ctrls.avgBusLat                    5000.00                       # Average bus latency per DRAM burst
system.mem_ctrls.avgMemAccLat                34532.02                       # Average memory access latency per DRAM burst
system.mem_ctrls.numRdRetry                         0                       # Number of times read queue was full causing retry
system.mem_ctrls.numWrRetry                         0                       # Number of times write queue was full causing retry
system.mem_ctrls.readRowHits                    28490                       # Number of row buffer hits during reads
system.mem_ctrls.writeRowHits                    5730                       # Number of row buffer hits during writes
system.mem_ctrls.readRowHitRate                 70.92                       # Row buffer hit rate for reads
system.mem_ctrls.writeRowHitRate                85.75                       # Row buffer hit rate for writes
system.mem_ctrls.readPktSize::0                     0                       # Read request sizes (log2)
system.mem_ctrls.readPktSize::1                     0                       # Read request sizes (log2)
system.mem_ctrls.readPktSize::2                     0                       # Read request sizes (log2)
system.mem_ctrls.readPktSize::3                     0                       # Read request sizes (log2)
system.mem_ctrls.readPktSize::4                     0                       # Read request sizes (log2)
system.mem_ctrls.readPktSize::5                     0                       # Read request sizes (log2)
system.mem_ctrls.readPktSize::6                 40174                       # Read request sizes (log2)
system.mem_ctrls.writePktSize::0                    0                       # Write request sizes (log2)
system.mem_ctrls.writePktSize::1                    0                       # Write request sizes (log2)
system.mem_ctrls.writePktSize::2                    0                       # Write request sizes (log2)
system.mem_ctrls.writePktSize::3                    0                       # Write request sizes (log2)
system.mem_ctrls.writePktSize::4                    0                       # Write request sizes (log2)
system.mem_ctrls.writePktSize::5                    0                       # Write request sizes (log2)
system.mem_ctrls.writePktSize::6                 6682                       # Write request sizes (log2)
system.mem_ctrls.rdQLenPdf::0                   19986                       # What read queue length does an incoming req see
system.mem_ctrls.rdQLenPdf::1                   19993                       # What read queue length does an incoming req see
system.mem_ctrls.rdQLenPdf::2                      98                       # What read queue length does an incoming req see
system.mem_ctrls.rdQLenPdf::3                      92                       # What read queue length does an incoming req see
system.mem_ctrls.rdQLenPdf::4                       3                       # What read queue length does an incoming req see
system.mem_ctrls.rdQLenPdf::5                       2                       # What read queue length does an incoming req see
system.mem_ctrls.rdQLenPdf::6                       0                       # What read queue length does an incoming req see
system.mem_ctrls.rdQLenPdf::7                       0                       # What read queue length does an incoming req see
system.mem_ctrls.rdQLenPdf::8                       0                       # What read queue length does an incoming req see
system.mem_ctrls.rdQLenPdf::9                       0                       # What read queue length does an incoming req see
system.mem_ctrls.rdQLenPdf::10                      0                       # What read queue length does an incoming req see
system.mem_ctrls.rdQLenPdf::11                      0                       # What read queue length does an incoming req see
system.mem_ctrls.rdQLenPdf::12                      0                       # What read queue length does an incoming req see
system.mem_ctrls.rdQLenPdf::13                      0                       # What read queue length does an incoming req see
system.mem_ctrls.rdQLenPdf::14                      0                       # What read queue length does an incoming req see
system.mem_ctrls.rdQLenPdf::15                      0                       # What read queue length does an incoming req see
system.mem_ctrls.rdQLenPdf::16                      0                       # What read queue length does an incoming req see
system.mem_ctrls.rdQLenPdf::17                      0                       # What read queue length does an incoming req see
system.mem_ctrls.rdQLenPdf::18                      0                       # What read queue length does an incoming req see
system.mem_ctrls.rdQLenPdf::19                      0                       # What read queue length does an incoming req see
system.mem_ctrls.rdQLenPdf::20                      0                       # What read queue length does an incoming req see
system.mem_ctrls.rdQLenPdf::21                      0                       # What read queue length does an incoming req see
system.mem_ctrls.rdQLenPdf::22                      0                       # What read queue length does an incoming req see
system.mem_ctrls.rdQLenPdf::23                      0                       # What read queue length does an incoming req see
system.mem_ctrls.rdQLenPdf::24                      0                       # What read queue length does an incoming req see
system.mem_ctrls.rdQLenPdf::25                      0                       # What read queue length does an incoming req see
system.mem_ctrls.rdQLenPdf::26                      0                       # What read queue length does an incoming req see
system.mem_ctrls.rdQLenPdf::27                      0                       # What read queue length does an incoming req see
system.mem_ctrls.rdQLenPdf::28                      0                       # What read queue length does an incoming req see
system.mem_ctrls.rdQLenPdf::29                      0                       # What read queue length does an incoming req see
system.mem_ctrls.rdQLenPdf::30                      0                       # What read queue length does an incoming req see
system.mem_ctrls.rdQLenPdf::31                      0                       # What read queue length does an incoming req see
system.mem_ctrls.wrQLenPdf::0                       1                       # What write queue length does an incoming req see
system.mem_ctrls.wrQLenPdf::1                       1                       # What write queue length does an incoming req see
system.mem_ctrls.wrQLenPdf::2                       1                       # What write queue length does an incoming req see
system.mem_ctrls.wrQLenPdf::3                       1                       # What write queue length does an incoming req see
system.mem_ctrls.wrQLenPdf::4                       1                       # What write queue length does an incoming req see
system.mem_ctrls.wrQLenPdf::5                       1                       # What write queue length does an incoming req see
system.mem_ctrls.wrQLenPdf::6                       1                       # What write queue length does an incoming req see
system.mem_ctrls.wrQLenPdf::7                       1                       # What write queue length does an incoming req see
system.mem_ctrls.wrQLenPdf::8                       1                       # What write queue length does an incoming req see
system.mem_ctrls.wrQLenPdf::9                       1                       # What write queue length does an incoming req see
system.mem_ctrls.wrQLenPdf::10                      1                       # What write queue length does an incoming req see
system.mem_ctrls.wrQLenPdf::11                      1                       # What write queue length does an incoming req see
system.mem_ctrls.wrQLenPdf::12                      1                       # What write queue length does an incoming req see
system.mem_ctrls.wrQLenPdf::13                      1                       # What write queue length does an incoming req see
system.mem_ctrls.wrQLenPdf::14                      1                       # What write queue length does an incoming req see
system.mem_ctrls.wrQLenPdf::15                    371                       # What write queue length does an incoming req see
system.mem_ctrls.wrQLenPdf::16                    371                       # What write queue length does an incoming req see
system.mem_ctrls.wrQLenPdf::17                    370                       # What write queue length does an incoming req see
system.mem_ctrls.wrQLenPdf::18                    370                       # What write queue length does an incoming req see
system.mem_ctrls.wrQLenPdf::19                    370                       # What write queue length does an incoming req see
system.mem_ctrls.wrQLenPdf::20                    370                       # What write queue length does an incoming req see
system.mem_ctrls.wrQLenPdf::21                    370                       # What write queue length does an incoming req see
system.mem_ctrls.wrQLenPdf::22                    370                       # What write queue length does an incoming req see
system.mem_ctrls.wrQLenPdf::23                    370                       # What write queue length does an incoming req see
system.mem_ctrls.wrQLenPdf::24                    370                       # What write queue length does an incoming req see
system.mem_ctrls.wrQLenPdf::25                    370                       # What write queue length does an incoming req see
system.mem_ctrls.wrQLenPdf::26                    371                       # What write queue length does an incoming req see
system.mem_ctrls.wrQLenPdf::27                    371                       # What write queue length does an incoming req see
system.mem_ctrls.wrQLenPdf::28                    370                       # What write queue length does an incoming req see
system.mem_ctrls.wrQLenPdf::29                    371                       # What write queue length does an incoming req see
system.mem_ctrls.wrQLenPdf::30                    371                       # What write queue length does an incoming req see
system.mem_ctrls.wrQLenPdf::31                    370                       # What write queue length does an incoming req see
system.mem_ctrls.wrQLenPdf::32                    370                       # What write queue length does an incoming req see
system.mem_ctrls.wrQLenPdf::33                      1                       # What write queue length does an incoming req see
system.mem_ctrls.wrQLenPdf::34                      0                       # What write queue length does an incoming req see
system.mem_ctrls.wrQLenPdf::35                      0                       # What write queue length does an incoming req see
system.mem_ctrls.wrQLenPdf::36                      0                       # What write queue length does an incoming req see
system.mem_ctrls.wrQLenPdf::37                      0                       # What write queue length does an incoming req see
system.mem_ctrls.wrQLenPdf::38                      0                       # What write queue length does an incoming req see
system.mem_ctrls.wrQLenPdf::39                      0                       # What write queue length does an incoming req see
system.mem_ctrls.wrQLenPdf::40                      0                       # What write queue length does an incoming req see
system.mem_ctrls.wrQLenPdf::41                      0                       # What write queue length does an incoming req see
system.mem_ctrls.wrQLenPdf::42                      0                       # What write queue length does an incoming req see
system.mem_ctrls.wrQLenPdf::43                      0                       # What write queue length does an incoming req see
system.mem_ctrls.wrQLenPdf::44                      0                       # What write queue length does an incoming req see
system.mem_ctrls.wrQLenPdf::45                      0                       # What write queue length does an incoming req see
system.mem_ctrls.wrQLenPdf::46                      0                       # What write queue length does an incoming req see
system.mem_ctrls.wrQLenPdf::47                      0                       # What write queue length does an incoming req see
system.mem_ctrls.wrQLenPdf::48                      0                       # What write queue length does an incoming req see
system.mem_ctrls.wrQLenPdf::49                      0                       # What write queue length does an incoming req see
system.mem_ctrls.wrQLenPdf::50                      0                       # What write queue length does an incoming req see
system.mem_ctrls.wrQLenPdf::51                      0                       # What write queue length does an incoming req see
system.mem_ctrls.wrQLenPdf::52                      0                       # What write queue length does an incoming req see
system.mem_ctrls.wrQLenPdf::53                      0                       # What write queue length does an incoming req see
system.mem_ctrls.wrQLenPdf::54                      0                       # What write queue length does an incoming req see
system.mem_ctrls.wrQLenPdf::55                      0                       # What write queue length does an incoming req see
system.mem_ctrls.wrQLenPdf::56                      0                       # What write queue length does an incoming req see
system.mem_ctrls.wrQLenPdf::57                      0                       # What write queue length does an incoming req see
system.mem_ctrls.wrQLenPdf::58                      0                       # What write queue length does an incoming req see
system.mem_ctrls.wrQLenPdf::59                      0                       # What write queue length does an incoming req see
system.mem_ctrls.wrQLenPdf::60                      0                       # What write queue length does an incoming req see
system.mem_ctrls.wrQLenPdf::61                      0                       # What write queue length does an incoming req see
system.mem_ctrls.wrQLenPdf::62                      0                       # What write queue length does an incoming req see
system.mem_ctrls.wrQLenPdf::63                      0                       # What write queue length does an incoming req see
system.mem_ctrls.bytesPerActivate::samples        12619                       # Bytes accessed per row activation
system.mem_ctrls.bytesPerActivate::mean    237.554164                       # Bytes accessed per row activation
system.mem_ctrls.bytesPerActivate::gmean   199.231628                       # Bytes accessed per row activation
system.mem_ctrls.bytesPerActivate::stdev   171.401895                       # Bytes accessed per row activation
system.mem_ctrls.bytesPerActivate::0-127           43      0.34%      0.34% # Bytes accessed per row activation
system.mem_ctrls.bytesPerActivate::128-255         6763     53.59%     53.93% # Bytes accessed per row activation
system.mem_ctrls.bytesPerActivate::256-383         3502     27.75%     81.69% # Bytes accessed per row activation
system.mem_ctrls.bytesPerActivate::384-511         1031      8.17%     89.86% # Bytes accessed per row activation
system.mem_ctrls.bytesPerActivate::512-639          711      5.63%     95.49% # Bytes accessed per row activation
system.mem_ctrls.bytesPerActivate::640-767          254      2.01%     97.50% # Bytes accessed per row activation
system.mem_ctrls.bytesPerActivate::768-895           57      0.45%     97.96% # Bytes accessed per row activation
system.mem_ctrls.bytesPerActivate::896-1023           54      0.43%     98.38% # Bytes accessed per row activation
system.mem_ctrls.bytesPerActivate::1024-1151          204      1.62%    100.00% # Bytes accessed per row activation
system.mem_ctrls.bytesPerActivate::total        12619                       # Bytes accessed per row activation
system.mem_ctrls.rdPerTurnAround::samples          370                       # Reads before turning the bus around for writes
system.mem_ctrls.rdPerTurnAround::mean     108.572973                       # Reads before turning the bus around for writes
system.mem_ctrls.rdPerTurnAround::gmean     19.839111                       # Reads before turning the bus around for writes
system.mem_ctrls.rdPerTurnAround::stdev   1491.927771                       # Reads before turning the bus around for writes
system.mem_ctrls.rdPerTurnAround::0-1023          367     99.19%     99.19% # Reads before turning the bus around for writes
system.mem_ctrls.rdPerTurnAround::1024-2047            2      0.54%     99.73% # Reads before turning the bus around for writes
system.mem_ctrls.rdPerTurnAround::27648-28671            1      0.27%    100.00% # Reads before turning the bus around for writes
system.mem_ctrls.rdPerTurnAround::total           370                       # Reads before turning the bus around for writes
system.mem_ctrls.wrPerTurnAround::samples          370                       # Writes before turning the bus around for reads
system.mem_ctrls.wrPerTurnAround::mean      18.013514                       # Writes before turning the bus around for reads
system.mem_ctrls.wrPerTurnAround::gmean     18.012886                       # Writes before turning the bus around for reads
[...]
system.cpu.icache.ReadReq_mshr_misses::total       947964                       # number of ReadReq MSHR misses
system.cpu.icache.ReadReq_mshr_miss_latency::.cpu.inst  11545807500                       # number of ReadReq MSHR miss cycles
system.cpu.icache.ReadReq_mshr_miss_latency::total  11545807500                       # number of ReadReq MSHR miss cycles
system.cpu.icache.ReadReq_mshr_miss_rate::.cpu.inst     0.035247                       # mshr miss rate for ReadReq accesses
system.cpu.icache.ReadReq_mshr_miss_rate::total     0.035247                       # mshr miss rate for ReadReq accesses
system.cpu.icache.ReadReq_avg_mshr_miss_latency::.cpu.inst 12179.584351                       # average ReadReq mshr miss latency
system.cpu.icache.ReadReq_avg_mshr_miss_latency::total 12179.584351                       # average ReadReq mshr miss latency
system.cpu.icache.tags.pwrStateResidencyTicks::UNDEFINED  66482576500                       # Cumulative time (in ticks) in various power states
system.cpu.icache.tags.tagsinuse           224.937265                       # Cycle average of tags in use
system.cpu.icache.tags.total_refs            26894752                       # Total number of references to valid blocks.
system.cpu.icache.tags.sampled_refs            947963                       # Sample count of references to valid blocks.
system.cpu.icache.tags.avg_refs             28.371099                       # Average number of references to valid blocks.
system.cpu.icache.tags.warmup_cycle             92500                       # Cycle when the warmup percentage was hit.
system.cpu.icache.tags.occ_blocks::.cpu.inst   224.937265                       # Average occupied blocks per requestor
system.cpu.icache.tags.occ_percent::.cpu.inst     0.878661                       # Average percentage of cache occupancy
system.cpu.icache.tags.occ_percent::total     0.878661                       # Average percentage of cache occupancy
system.cpu.icache.tags.occ_task_id_blocks::1024          225                       # Occupied blocks per task id
system.cpu.icache.tags.age_task_id_blocks_1024::0           15                       # Occupied blocks per task id
system.cpu.icache.tags.age_task_id_blocks_1024::2            6                       # Occupied blocks per task id
system.cpu.icache.tags.age_task_id_blocks_1024::4          204                       # Occupied blocks per task id
system.cpu.icache.tags.occ_task_id_percent::1024     0.878906                       # Percentage of cache occupancy per task id
system.cpu.icache.tags.tag_accesses          54737469                       # Number of tag accesses
system.cpu.icache.tags.data_accesses         54737469                       # Number of data accesses
system.cpu.dtb.walker.pwrStateResidencyTicks::UNDEFINED  66482576500                       # Cumulative time (in ticks) in various power states
system.cpu.dtb.stage2_mmu.stage2_tlb.walker.pwrStateResidencyTicks::UNDEFINED  66482576500                       # Cumulative time (in ticks) in various power states
system.cpu.dcache.pwrStateResidencyTicks::UNDEFINED  66482576500                       # Cumulative time (in ticks) in various power states
system.cpu.dcache.demand_hits::.cpu.data     34795549                       # number of demand (read+write) hits
system.cpu.dcache.demand_hits::total         34795549                       # number of demand (read+write) hits
system.cpu.dcache.overall_hits::.cpu.data     34798885                       # number of overall hits
system.cpu.dcache.overall_hits::total        34798885                       # number of overall hits
system.cpu.dcache.demand_misses::.cpu.data        41084                       # number of demand (read+write) misses
system.cpu.dcache.demand_misses::total          41084                       # number of demand (read+write) misses
system.cpu.dcache.overall_misses::.cpu.data        41109                       # number of overall misses
system.cpu.dcache.overall_misses::total         41109                       # number of overall misses
system.cpu.dcache.demand_miss_latency::.cpu.data   2565116500                       # number of demand (read+write) miss cycles
system.cpu.dcache.demand_miss_latency::total   2565116500                       # number of demand (read+write) miss cycles
system.cpu.dcache.overall_miss_latency::.cpu.data   2565116500                       # number of overall miss cycles
system.cpu.dcache.overall_miss_latency::total   2565116500                       # number of overall miss cycles
system.cpu.dcache.demand_accesses::.cpu.data     34836633                       # number of demand (read+write) accesses
system.cpu.dcache.demand_accesses::total     34836633                       # number of demand (read+write) accesses
system.cpu.dcache.overall_accesses::.cpu.data     34839994                       # number of overall (read+write) accesses
system.cpu.dcache.overall_accesses::total     34839994                       # number of overall (read+write) accesses
system.cpu.dcache.demand_miss_rate::.cpu.data     0.001179                       # miss rate for demand accesses
system.cpu.dcache.demand_miss_rate::total     0.001179                       # miss rate for demand accesses
system.cpu.dcache.overall_miss_rate::.cpu.data     0.001180                       # miss rate for overall accesses
system.cpu.dcache.overall_miss_rate::total     0.001180                       # miss rate for overall accesses
system.cpu.dcache.demand_avg_miss_latency::.cpu.data 62435.899620                       # average overall miss latency
system.cpu.dcache.demand_avg_miss_latency::total 62435.899620                       # average overall miss latency
system.cpu.dcache.overall_avg_miss_latency::.cpu.data 62397.929894                       # average overall miss latency
system.cpu.dcache.overall_avg_miss_latency::total 62397.929894                       # average overall miss latency
system.cpu.dcache.blocked_cycles::no_mshrs            0                       # number of cycles access was blocked
system.cpu.dcache.blocked_cycles::no_targets            0                       # number of cycles access was blocked
system.cpu.dcache.blocked::no_mshrs                 0                       # number of cycles access was blocked
system.cpu.dcache.blocked::no_targets               0                       # number of cycles access was blocked
system.cpu.dcache.avg_blocked_cycles::no_mshrs          nan                       # average number of cycles each access was blocked
system.cpu.dcache.avg_blocked_cycles::no_targets          nan                       # average number of cycles each access was blocked
system.cpu.dcache.writebacks::.writebacks        29152                       # number of writebacks
system.cpu.dcache.writebacks::total             29152                       # number of writebacks
system.cpu.dcache.demand_mshr_hits::.cpu.data         9478                       # number of demand (read+write) MSHR hits
system.cpu.dcache.demand_mshr_hits::total         9478                       # number of demand (read+write) MSHR hits
system.cpu.dcache.overall_mshr_hits::.cpu.data         9478                       # number of overall MSHR hits
system.cpu.dcache.overall_mshr_hits::total         9478                       # number of overall MSHR hits
system.cpu.dcache.demand_mshr_misses::.cpu.data        31606                       # number of demand (read+write) MSHR misses
system.cpu.dcache.demand_mshr_misses::total        31606                       # number of demand (read+write) MSHR misses
system.cpu.dcache.overall_mshr_misses::.cpu.data        31619                       # number of overall MSHR misses
system.cpu.dcache.overall_mshr_misses::total        31619                       # number of overall MSHR misses
system.cpu.dcache.demand_mshr_miss_latency::.cpu.data   1915565000                       # number of demand (read+write) MSHR miss cycles
system.cpu.dcache.demand_mshr_miss_latency::total   1915565000                       # number of demand (read+write) MSHR miss cycles
system.cpu.dcache.overall_mshr_miss_latency::.cpu.data   1916288500                       # number of overall MSHR miss cycles
system.cpu.dcache.overall_mshr_miss_latency::total   1916288500                       # number of overall MSHR miss cycles
system.cpu.dcache.demand_mshr_miss_rate::.cpu.data     0.000907                       # mshr miss rate for demand accesses
system.cpu.dcache.demand_mshr_miss_rate::total     0.000907                       # mshr miss rate for demand accesses
system.cpu.dcache.overall_mshr_miss_rate::.cpu.data     0.000908                       # mshr miss rate for overall accesses
system.cpu.dcache.overall_mshr_miss_rate::total     0.000908                       # mshr miss rate for overall accesses
system.cpu.dcache.demand_avg_mshr_miss_latency::.cpu.data 60607.637790                       # average overall mshr miss latency
system.cpu.dcache.demand_avg_mshr_miss_latency::total 60607.637790                       # average overall mshr miss latency
system.cpu.dcache.overall_avg_mshr_miss_latency::.cpu.data 60605.601063                       # average overall mshr miss latency
system.cpu.dcache.overall_avg_mshr_miss_latency::total 60605.601063                       # average overall mshr miss latency
system.cpu.dcache.replacements                  30595                       # number of replacements
system.cpu.dcache.ReadReq_hits::.cpu.data     20613073                       # number of ReadReq hits
system.cpu.dcache.ReadReq_hits::total        20613073                       # number of ReadReq hits
system.cpu.dcache.ReadReq_misses::.cpu.data        13376                       # number of ReadReq misses
system.cpu.dcache.ReadReq_misses::total         13376                       # number of ReadReq misses
system.cpu.dcache.ReadReq_miss_latency::.cpu.data    208966000                       # number of ReadReq miss cycles
system.cpu.dcache.ReadReq_miss_latency::total    208966000                       # number of ReadReq miss cycles
system.cpu.dcache.ReadReq_accesses::.cpu.data     20626449                       # number of ReadReq accesses(hits+misses)
system.cpu.dcache.ReadReq_accesses::total     20626449                       # number of ReadReq accesses(hits+misses)
system.cpu.dcache.ReadReq_miss_rate::.cpu.data     0.000648                       # miss rate for ReadReq accesses
system.cpu.dcache.ReadReq_miss_rate::total     0.000648                       # miss rate for ReadReq accesses
system.cpu.dcache.ReadReq_avg_miss_latency::.cpu.data 15622.458134                       # average ReadReq miss latency
system.cpu.dcache.ReadReq_avg_miss_latency::total 15622.458134                       # average ReadReq miss latency
system.cpu.dcache.ReadReq_mshr_hits::.cpu.data         1198                       # number of ReadReq MSHR hits
system.cpu.dcache.ReadReq_mshr_hits::total         1198                       # number of ReadReq MSHR hits
system.cpu.dcache.ReadReq_mshr_misses::.cpu.data        12178                       # number of ReadReq MSHR misses
system.cpu.dcache.ReadReq_mshr_misses::total        12178                       # number of ReadReq MSHR misses
system.cpu.dcache.ReadReq_mshr_miss_latency::.cpu.data    173790000                       # number of ReadReq MSHR miss cycles
system.cpu.dcache.ReadReq_mshr_miss_latency::total    173790000                       # number of ReadReq MSHR miss cycles
system.cpu.dcache.ReadReq_mshr_miss_rate::.cpu.data     0.000590                       # mshr miss rate for ReadReq accesses
system.cpu.dcache.ReadReq_mshr_miss_rate::total     0.000590                       # mshr miss rate for ReadReq accesses
system.cpu.dcache.ReadReq_avg_mshr_miss_latency::.cpu.data 14270.816226                       # average ReadReq mshr miss latency
system.cpu.dcache.ReadReq_avg_mshr_miss_latency::total 14270.816226                       # average ReadReq mshr miss latency
system.cpu.dcache.WriteReq_hits::.cpu.data     14182476                       # number of WriteReq hits
system.cpu.dcache.WriteReq_hits::total       14182476                       # number of WriteReq hits
system.cpu.dcache.WriteReq_misses::.cpu.data        27708                       # number of WriteReq misses
system.cpu.dcache.WriteReq_misses::total        27708                       # number of WriteReq misses
system.cpu.dcache.WriteReq_miss_latency::.cpu.data   2356150500                       # number of WriteReq miss cycles
system.cpu.dcache.WriteReq_miss_latency::total   2356150500                       # number of WriteReq miss cycles
system.cpu.dcache.WriteReq_accesses::.cpu.data     14210184                       # number of WriteReq accesses(hits+misses)
system.cpu.dcache.WriteReq_accesses::total     14210184                       # number of WriteReq accesses(hits+misses)
system.cpu.dcache.WriteReq_miss_rate::.cpu.data     0.001950                       # miss rate for WriteReq accesses
system.cpu.dcache.WriteReq_miss_rate::total     0.001950                       # miss rate for WriteReq accesses
system.cpu.dcache.WriteReq_avg_miss_latency::.cpu.data 85035.025985                       # average WriteReq miss latency
system.cpu.dcache.WriteReq_avg_miss_latency::total 85035.025985                       # average WriteReq miss latency
system.cpu.dcache.WriteReq_mshr_hits::.cpu.data         8280                       # number of WriteReq MSHR hits
system.cpu.dcache.WriteReq_mshr_hits::total         8280                       # number of WriteReq MSHR hits
system.cpu.dcache.WriteReq_mshr_misses::.cpu.data        19428                       # number of WriteReq MSHR misses
system.cpu.dcache.WriteReq_mshr_misses::total        19428                       # number of WriteReq MSHR misses
system.cpu.dcache.WriteReq_mshr_miss_latency::.cpu.data   1741775000                       # number of WriteReq MSHR miss cycles
system.cpu.dcache.WriteReq_mshr_miss_latency::total   1741775000                       # number of WriteReq MSHR miss cycles
system.cpu.dcache.WriteReq_mshr_miss_rate::.cpu.data     0.001367                       # mshr miss rate for WriteReq accesses
system.cpu.dcache.WriteReq_mshr_miss_rate::total     0.001367                       # mshr miss rate for WriteReq accesses
system.cpu.dcache.WriteReq_avg_mshr_miss_latency::.cpu.data 89652.820671                       # average WriteReq mshr miss latency
system.cpu.dcache.WriteReq_avg_mshr_miss_latency::total 89652.820671                       # average WriteReq mshr miss latency
system.cpu.dcache.SoftPFReq_hits::.cpu.data         3336                       # number of SoftPFReq hits
system.cpu.dcache.SoftPFReq_hits::total          3336                       # number of SoftPFReq hits
system.cpu.dcache.SoftPFReq_misses::.cpu.data           25                       # number of SoftPFReq misses
system.cpu.dcache.SoftPFReq_misses::total           25                       # number of SoftPFReq misses
system.cpu.dcache.SoftPFReq_accesses::.cpu.data         3361                       # number of SoftPFReq accesses(hits+misses)
system.cpu.dcache.SoftPFReq_accesses::total         3361                       # number of SoftPFReq accesses(hits+misses)
system.cpu.dcache.SoftPFReq_miss_rate::.cpu.data     0.007438                       # miss rate for SoftPFReq accesses
system.cpu.dcache.SoftPFReq_miss_rate::total     0.007438                       # miss rate for SoftPFReq accesses
system.cpu.dcache.SoftPFReq_mshr_misses::.cpu.data           13                       # number of SoftPFReq MSHR misses
system.cpu.dcache.SoftPFReq_mshr_misses::total           13                       # number of SoftPFReq MSHR misses
system.cpu.dcache.SoftPFReq_mshr_miss_latency::.cpu.data       723500                       # number of SoftPFReq MSHR miss cycles
system.cpu.dcache.SoftPFReq_mshr_miss_latency::total       723500                       # number of SoftPFReq MSHR miss cycles
system.cpu.dcache.SoftPFReq_mshr_miss_rate::.cpu.data     0.003868                       # mshr miss rate for SoftPFReq accesses
system.cpu.dcache.SoftPFReq_mshr_miss_rate::total     0.003868                       # mshr miss rate for SoftPFReq accesses
system.cpu.dcache.SoftPFReq_avg_mshr_miss_latency::.cpu.data 55653.846154                       # average SoftPFReq mshr miss latency
system.cpu.dcache.SoftPFReq_avg_mshr_miss_latency::total 55653.846154                       # average SoftPFReq mshr miss latency
system.cpu.dcache.LoadLockedReq_hits::.cpu.data        89082                       # number of LoadLockedReq hits
system.cpu.dcache.LoadLockedReq_hits::total        89082                       # number of LoadLockedReq hits
system.cpu.dcache.LoadLockedReq_accesses::.cpu.data        89082                       # number of LoadLockedReq accesses(hits+misses)
system.cpu.dcache.LoadLockedReq_accesses::total        89082                       # number of LoadLockedReq accesses(hits+misses)
system.cpu.dcache.StoreCondReq_hits::.cpu.data        89082                       # number of StoreCondReq hits
system.cpu.dcache.StoreCondReq_hits::total        89082                       # number of StoreCondReq hits
system.cpu.dcache.StoreCondReq_accesses::.cpu.data        89082                       # number of StoreCondReq accesses(hits+misses)
system.cpu.dcache.StoreCondReq_accesses::total        89082                       # number of StoreCondReq accesses(hits+misses)
system.cpu.dcache.tags.pwrStateResidencyTicks::UNDEFINED  66482576500                       # Cumulative time (in ticks) in various power states
system.cpu.dcache.tags.tagsinuse          1016.508660                       # Cycle average of tags in use
system.cpu.dcache.tags.total_refs            35008668                       # Total number of references to valid blocks.
system.cpu.dcache.tags.sampled_refs             31619                       # Sample count of references to valid blocks.
system.cpu.dcache.tags.avg_refs           1107.203517                       # Average number of references to valid blocks.
system.cpu.dcache.tags.warmup_cycle            210500                       # Cycle when the warmup percentage was hit.
system.cpu.dcache.tags.occ_blocks::.cpu.data  1016.508660                       # Average occupied blocks per requestor
system.cpu.dcache.tags.occ_percent::.cpu.data     0.992684                       # Average percentage of cache occupancy
system.cpu.dcache.tags.occ_percent::total     0.992684                       # Average percentage of cache occupancy
system.cpu.dcache.tags.occ_task_id_blocks::1024         1024                       # Occupied blocks per task id
system.cpu.dcache.tags.age_task_id_blocks_1024::0            2                       # Occupied blocks per task id
system.cpu.dcache.tags.age_task_id_blocks_1024::1           22                       # Occupied blocks per task id
system.cpu.dcache.tags.age_task_id_blocks_1024::2          314                       # Occupied blocks per task id
system.cpu.dcache.tags.age_task_id_blocks_1024::3          651                       # Occupied blocks per task id
system.cpu.dcache.tags.age_task_id_blocks_1024::4           35                       # Occupied blocks per task id
system.cpu.dcache.tags.occ_task_id_percent::1024            1                       # Percentage of cache occupancy per task id
system.cpu.dcache.tags.tag_accesses          70067935                       # Number of tag accesses
system.cpu.dcache.tags.data_accesses         70067935                       # Number of data accesses
system.cpu.itb.walker.pwrStateResidencyTicks::UNDEFINED  66482576500                       # Cumulative time (in ticks) in various power states
system.cpu.itb.stage2_mmu.stage2_tlb.walker.pwrStateResidencyTicks::UNDEFINED  66482576500                       # Cumulative time (in ticks) in various power states

---------- End Simulation Statistics   ----------
