
---------- Begin Simulation Statistics ----------
final_tick                                66766248000                       # Number of ticks from beginning of simulation (restored from checkpoints and never reset)
host_inst_rate                                 220219                       # Simulator instruction rate (inst/s)
host_mem_usage                                 686744                       # Number of bytes of host memory used
host_op_rate                                   240990                       # Simulator op (including micro ops) rate (op/s)
host_seconds                                   454.09                       # Real time elapsed on the host
host_tick_rate                              147031804                       # Simulator tick rate (ticks/s)
sim_freq                                 1000000000000                       # Frequency of simulated ticks
sim_insts                                   100000001                       # Number of instructions simulated
sim_ops                                     109431937                       # Number of ops (including micro ops) simulated
sim_seconds                                  0.066766                       # Number of seconds simulated
sim_ticks                                 66766248000                       # Number of ticks simulated
system.cpu.branchPred.BTBCorrect                    0                       # Number of correct BTB predictions (this stat may not work properly.
system.cpu.branchPred.BTBHitPct             87.605993                       # BTB Hit Percentage
system.cpu.branchPred.BTBHits                 8698951                       # Number of BTB hits
system.cpu.branchPred.BTBLookups              9929630                       # Number of BTB lookups
system.cpu.branchPred.RASInCorrect                348                       # Number of incorrect RAS predictions.
system.cpu.branchPred.condIncorrect            154854                       # Number of conditional branches incorrect
system.cpu.branchPred.condPredicted          16493249                       # Number of conditional branches predicted
system.cpu.branchPred.indirectHits             300027                       # Number of indirect target hits.
system.cpu.branchPred.indirectLookups          523195                       # Number of indirect predictor lookups.
system.cpu.branchPred.indirectMisses           223168                       # Number of indirect misses.
system.cpu.branchPred.lookups                20555785                       # Number of BP lookups
system.cpu.branchPred.usedRAS                 1050673                       # Number of times the RAS was used to get a target.
system.cpu.branchPredindirectMispredicted         1043                       # Number of mispredicted indirect branches.
system.cpu.committedInsts                   100000001                       # Number of instructions committed
system.cpu.committedOps                     109431937                       # Number of ops (including micro ops) committed
system.cpu.cpi                               1.335325                       # CPI: cycles per instruction
system.cpu.discardedOps                        720077                       # Number of ops (including micro ops) which were discarded before commit
system.cpu.dtb.accesses                             0                       # DTB accesses
system.cpu.dtb.align_faults                         0                       # Number of TLB faults due to alignment restrictions
system.cpu.dtb.domain_faults                        0                       # Number of TLB faults due to domain restrictions
system.cpu.dtb.flush_entries                        0                       # Number of entries that have been flushed from TLB
system.cpu.dtb.flush_tlb                            0                       # Number of times complete TLB was flushed
system.cpu.dtb.flush_tlb_asid                       0                       # Number of times TLB was flushed by ASID
system.cpu.dtb.flush_tlb_mva                        0                       # Number of times TLB was flushed by MVA
system.cpu.dtb.flush_tlb_mva_asid                   0                       # Number of times TLB was flushed by MVA & ASID
system.cpu.dtb.hits                                 0                       # DTB hits
system.cpu.dtb.inst_accesses                        0                       # ITB inst accesses
system.cpu.dtb.inst_hits                            0                       # ITB inst hits
system.cpu.dtb.inst_misses                          0                       # ITB inst misses
system.cpu.dtb.misses                               0                       # DTB misses
system.cpu.dtb.perms_faults                         0                       # Number of TLB faults due to permissions restrictions
system.cpu.dtb.prefetch_faults                      0                       # Number of TLB faults due to prefetch
system.cpu.dtb.read_accesses                        0                       # DTB read accesses
system.cpu.dtb.read_hits                            0                       # DTB read hits
system.cpu.dtb.read_misses                          0                       # DTB read misses
system.cpu.dtb.stage2_mmu.stage2_tlb.accesses            0                       # DTB accesses
system.cpu.dtb.stage2_mmu.stage2_tlb.align_faults            0                       # Number of TLB faults due to alignment restrictions
system.cpu.dtb.stage2_mmu.stage2_tlb.domain_faults            0                       # Number of TLB faults due to domain restrictions
system.cpu.dtb.stage2_mmu.stage2_tlb.flush_entries            0                       # Number of entries that have been flushed from TLB
system.cpu.dtb.stage2_mmu.stage2_tlb.flush_tlb            0                       # Number of times complete TLB was flushed
system.cpu.dtb.stage2_mmu.stage2_tlb.flush_tlb_asid            0                       # Number of times TLB was flushed by ASID
system.cpu.dtb.stage2_mmu.stage2_tlb.flush_tlb_mva            0                       # Number of times TLB was flushed by MVA
system.cpu.dtb.stage2_mmu.stage2_tlb.flush_tlb_mva_asid            0                       # Number of times TLB was flushed by MVA & ASID
system.cpu.dtb.stage2_mmu.stage2_tlb.hits            0                       # DTB hits
system.cpu.dtb.stage2_mmu.stage2_tlb.inst_accesses            0                       # ITB inst accesses
system.cpu.dtb.stage2_mmu.stage2_tlb.inst_hits            0                       # ITB inst hits
system.cpu.dtb.stage2_mmu.stage2_tlb.inst_misses            0                       # ITB inst misses
system.cpu.dtb.stage2_mmu.stage2_tlb.misses            0                       # DTB misses
system.cpu.dtb.stage2_mmu.stage2_tlb.perms_faults            0                       # Number of TLB faults due to permissions restrictions
system.cpu.dtb.stage2_mmu.stage2_tlb.prefetch_faults            0                       # Number of TLB faults due to prefetch
system.cpu.dtb.stage2_mmu.stage2_tlb.read_accesses            0                       # DTB read accesses
system.cpu.dtb.stage2_mmu.stage2_tlb.read_hits            0                       # DTB read hits
system.cpu.dtb.stage2_mmu.stage2_tlb.read_misses            0                       # DTB read misses
system.cpu.dtb.stage2_mmu.stage2_tlb.walker.walkRequestOrigin_Requested::Data            0                       # Table walker requests started/completed, data/inst
system.cpu.dtb.stage2_mmu.stage2_tlb.walker.walkRequestOrigin_Requested::Inst            0                       # Table walker requests started/completed, data/inst
system.cpu.dtb.stage2_mmu.stage2_tlb.walker.walkRequestOrigin_Requested::total            0                       # Table walker requests started/completed, data/inst
system.cpu.dtb.stage2_mmu.stage2_tlb.walker.walkRequestOrigin_Completed::Data            0                       # Table walker requests started/completed, data/inst
system.cpu.dtb.stage2_mmu.stage2_tlb.walker.walkRequestOrigin_Completed::Inst            0                       # Table walker requests started/completed, data/inst
system.cpu.dtb.stage2_mmu.stage2_tlb.walker.walkRequestOrigin_Completed::total            0                       # Table walker requests started/completed, data/inst
system.cpu.dtb.stage2_mmu.stage2_tlb.walker.walkRequestOrigin::total            0                       # Table walker requests started/completed, data/inst
system.cpu.dtb.stage2_mmu.stage2_tlb.walker.walks            0                       # Table walker walks requested
system.cpu.dtb.stage2_mmu.stage2_tlb.write_accesses            0                       # DTB write accesses
system.cpu.dtb.stage2_mmu.stage2_tlb.write_hits            0                       # DTB write hits
system.cpu.dtb.stage2_mmu.stage2_tlb.write_misses            0                       # DTB write misses
system.cpu.dtb.walker.walkRequestOrigin_Requested::Data            0                       # Table walker requests started/completed, data/inst
system.cpu.dtb.walker.walkRequestOrigin_Requested::Inst            0                       # Table walker requests started/completed, data/inst
system.cpu.dtb.walker.walkRequestOrigin_Requested::total            0                       # Table walker requests started/completed, data/inst
system.cpu.dtb.walker.walkRequestOrigin_Completed::Data            0                       # Table walker requests started/completed, data/inst
system.cpu.dtb.walker.walkRequestOrigin_Completed::Inst            0                       # Table walker requests started/completed, data/inst
system.cpu.dtb.walker.walkRequestOrigin_Completed::total            0                       # Table walker requests started/completed, data/inst
system.cpu.dtb.walker.walkRequestOrigin::total            0                       # Table walker requests started/completed, data/inst
system.cpu.dtb.walker.walks                         0                       # Table walker walks requested
system.cpu.dtb.write_accesses                       0                       # DTB write accesses
system.cpu.dtb.write_hits                           0                       # DTB write hits
system.cpu.dtb.write_misses                         0                       # DTB write misses
system.cpu.fetch2.amo_instructions                  0                       # Number of memory atomic instructions successfully decoded
system.cpu.fetch2.fp_instructions                   0                       # Number of floating point instructions successfully decoded
system.cpu.fetch2.int_instructions           49722884                       # Number of integer instructions successfully decoded
system.cpu.fetch2.load_instructions          17195284                       # Number of memory load instructions successfully decoded
system.cpu.fetch2.store_instructions          9989278                       # Number of memory store instructions successfully decoded
system.cpu.fetch2.vec_instructions                  0                       # Number of SIMD instructions successfully decoded
system.cpu.idleCycles                        15608739                       # Total number of cycles that the object has spent stopped
system.cpu.ipc                               0.748881                       # IPC: instructions per cycle
system.cpu.itb.accesses                             0                       # DTB accesses
system.cpu.itb.align_faults                         0                       # Number of TLB faults due to alignment restrictions
system.cpu.itb.domain_faults                        0                       # Number of TLB faults due to domain restrictions
system.cpu.itb.flush_entries                        0                       # Number of entries that have been flushed from TLB
system.cpu.itb.flush_tlb                            0                       # Number of times complete TLB was flushed
system.cpu.itb.flush_tlb_asid                       0                       # Number of times TLB was flushed by ASID
system.cpu.itb.flush_tlb_mva                        0                       # Number of times TLB was flushed by MVA
system.cpu.itb.flush_tlb_mva_asid                   0                       # Number of times TLB was flushed by MVA & ASID
system.cpu.itb.hits                                 0                       # DTB hits
system.cpu.itb.inst_accesses                        0                       # ITB inst accesses
system.cpu.itb.inst_hits                            0                       # ITB inst hits
system.cpu.itb.inst_misses                          0                       # ITB inst misses
system.cpu.itb.misses                               0                       # DTB misses
system.cpu.itb.perms_faults                         0                       # Number of TLB faults due to permissions restrictions
system.cpu.itb.prefetch_faults                      0                       # Number of TLB faults due to prefetch
system.cpu.itb.read_accesses                        0                       # DTB read accesses
system.cpu.itb.read_hits                            0                       # DTB read hits
system.cpu.itb.read_misses                          0                       # DTB read misses
system.cpu.itb.stage2_mmu.stage2_tlb.accesses            0                       # DTB accesses
system.cpu.itb.stage2_mmu.stage2_tlb.align_faults            0                       # Number of TLB faults due to alignment restrictions
system.cpu.itb.stage2_mmu.stage2_tlb.domain_faults            0                       # Number of TLB faults due to domain restrictions
system.cpu.itb.stage2_mmu.stage2_tlb.flush_entries            0                       # Number of entries that have been flushed from TLB
system.cpu.itb.stage2_mmu.stage2_tlb.flush_tlb            0                       # Number of times complete TLB was flushed
system.cpu.itb.stage2_mmu.stage2_tlb.flush_tlb_asid            0                       # Number of times TLB was flushed by ASID
system.cpu.itb.stage2_mmu.stage2_tlb.flush_tlb_mva            0                       # Number of times TLB was flushed by MVA
system.cpu.itb.stage2_mmu.stage2_tlb.flush_tlb_mva_asid            0                       # Number of times TLB was flushed by MVA & ASID
system.cpu.itb.stage2_mmu.stage2_tlb.hits            0                       # DTB hits
system.cpu.itb.stage2_mmu.stage2_tlb.inst_accesses            0                       # ITB inst accesses
system.cpu.itb.stage2_mmu.stage2_tlb.inst_hits            0                       # ITB inst hits
system.cpu.itb.stage2_mmu.stage2_tlb.inst_misses            0                       # ITB inst misses
system.cpu.itb.stage2_mmu.stage2_tlb.misses            0                       # DTB misses
system.cpu.itb.stage2_mmu.stage2_tlb.perms_faults            0                       # Number of TLB faults due to permissions restrictions
system.cpu.itb.stage2_mmu.stage2_tlb.prefetch_faults            0                       # Number of TLB faults due to prefetch
system.cpu.itb.stage2_mmu.stage2_tlb.read_accesses            0                       # DTB read accesses
system.cpu.itb.stage2_mmu.stage2_tlb.read_hits            0                       # DTB read hits
system.cpu.itb.stage2_mmu.stage2_tlb.read_misses            0                       # DTB read misses
system.cpu.itb.stage2_mmu.stage2_tlb.walker.walkRequestOrigin_Requested::Data            0                       # Table walker requests started/completed, data/inst
system.cpu.itb.stage2_mmu.stage2_tlb.walker.walkRequestOrigin_Requested::Inst            0                       # Table walker requests started/completed, data/inst
system.cpu.itb.stage2_mmu.stage2_tlb.walker.walkRequestOrigin_Requested::total            0                       # Table walker requests started/completed, data/inst
system.cpu.itb.stage2_mmu.stage2_tlb.walker.walkRequestOrigin_Completed::Data            0                       # Table walker requests started/completed, data/inst
system.cpu.itb.stage2_mmu.stage2_tlb.walker.walkRequestOrigin_Completed::Inst            0                       # Table walker requests started/completed, data/inst
system.cpu.itb.stage2_mmu.stage2_tlb.walker.walkRequestOrigin_Completed::total            0                       # Table walker requests started/completed, data/inst
system.cpu.itb.stage2_mmu.stage2_tlb.walker.walkRequestOrigin::total            0                       # Table walker requests started/completed, data/inst
system.cpu.itb.stage2_mmu.stage2_tlb.walker.walks            0                       # Table walker walks requested
system.cpu.itb.stage2_mmu.stage2_tlb.write_accesses            0                       # DTB write accesses
system.cpu.itb.stage2_mmu.stage2_tlb.write_hits            0                       # DTB write hits
system.cpu.itb.stage2_mmu.stage2_tlb.write_misses            0                       # DTB write misses
system.cpu.itb.walker.walkRequestOrigin_Requested::Data            0                       # Table walker requests started/completed, data/inst
system.cpu.itb.walker.walkRequestOrigin_Requested::Inst            0                       # Table walker requests started/completed, data/inst
system.cpu.itb.walker.walkRequestOrigin_Requested::total            0                       # Table walker requests started/completed, data/inst
system.cpu.itb.walker.walkRequestOrigin_Completed::Data            0                       # Table walker requests started/completed, data/inst
system.cpu.itb.walker.walkRequestOrigin_Completed::Inst            0                       # Table walker requests started/completed, data/inst
system.cpu.itb.walker.walkRequestOrigin_Completed::total            0                       # Table walker requests started/completed, data/inst
system.cpu.itb.walker.walkRequestOrigin::total            0                       # Table walker requests started/completed, data/inst
system.cpu.itb.walker.walks                         0                       # Table walker walks requested
system.cpu.itb.write_accesses                       0                       # DTB write accesses
system.cpu.itb.write_hits                           0                       # DTB write hits
system.cpu.itb.write_misses                         0                       # DTB write misses
system.cpu.numCycles                        133532496                       # number of cpu cycles simulated
system.cpu.numFetchSuspends                         0                       # Number of times Execute suspended instruction fetching
system.cpu.numWorkItemsCompleted                    0                       # number of work items this cpu completed
system.cpu.numWorkItemsStarted                      0                       # number of work items this cpu started
system.cpu.op_class_0::No_OpClass                   0      0.00%      0.00% # Class of committed instruction
system.cpu.op_class_0::IntAlu                72955303     66.67%     66.67% # Class of committed instruction
system.cpu.op_class_0::IntMult                 568365      0.52%     67.19% # Class of committed instruction
system.cpu.op_class_0::IntDiv                       0      0.00%     67.19% # Class of committed instruction
system.cpu.op_class_0::FloatAdd                     0      0.00%     67.19% # Class of committed instruction
system.cpu.op_class_0::FloatCmp                     0      0.00%     67.19% # Class of committed instruction
system.cpu.op_class_0::FloatCvt                     0      0.00%     67.19% # Class of committed instruction
system.cpu.op_class_0::FloatMult                    0      0.00%     67.19% # Class of committed instruction
system.cpu.op_class_0::FloatMultAcc                 0      0.00%     67.19% # Class of committed instruction
system.cpu.op_class_0::FloatDiv                     0      0.00%     67.19% # Class of committed instruction
system.cpu.op_class_0::FloatMisc                    0      0.00%     67.19% # Class of committed instruction
system.cpu.op_class_0::FloatSqrt                    0      0.00%     67.19% # Class of committed instruction
system.cpu.op_class_0::SimdAdd                 241252      0.22%     67.41% # Class of committed instruction
system.cpu.op_class_0::SimdAddAcc                   0      0.00%     67.41% # Class of committed instruction
system.cpu.op_class_0::SimdAlu                 154720      0.14%     67.55% # Class of committed instruction
system.cpu.op_class_0::SimdCmp                 120626      0.11%     67.66% # Class of committed instruction
system.cpu.op_class_0::SimdCvt                      0      0.00%     67.66% # Class of committed instruction
system.cpu.op_class_0::SimdMisc                 44544      0.04%     67.70% # Class of committed instruction
system.cpu.op_class_0::SimdMult                     0      0.00%     67.70% # Class of committed instruction
system.cpu.op_class_0::SimdMultAcc                  0      0.00%     67.70% # Class of committed instruction
system.cpu.op_class_0::SimdShift                    0      0.00%     67.70% # Class of committed instruction
system.cpu.op_class_0::SimdShiftAcc                 0      0.00%     67.70% # Class of committed instruction
system.cpu.op_class_0::SimdDiv                      0      0.00%     67.70% # Class of committed instruction
system.cpu.op_class_0::SimdSqrt                     0      0.00%     67.70% # Class of committed instruction
system.cpu.op_class_0::SimdFloatAdd                 0      0.00%     67.70% # Class of committed instruction
system.cpu.op_class_0::SimdFloatAlu                 0      0.00%     67.70% # Class of committed instruction
system.cpu.op_class_0::SimdFloatCmp                 0      0.00%     67.70% # Class of committed instruction
system.cpu.op_class_0::SimdFloatCvt                 0      0.00%     67.70% # Class of committed instruction
system.cpu.op_class_0::SimdFloatDiv                 0      0.00%     67.70% # Class of committed instruction
system.cpu.op_class_0::SimdFloatMisc           166465      0.15%     67.85% # Class of committed instruction
system.cpu.op_class_0::SimdFloatMult                0      0.00%     67.85% # Class of committed instruction
system.cpu.op_class_0::SimdFloatMultAcc             0      0.00%     67.85% # Class of committed instruction
system.cpu.op_class_0::SimdFloatSqrt                0      0.00%     67.85% # Class of committed instruction
system.cpu.op_class_0::SimdReduceAdd                0      0.00%     67.85% # Class of committed instruction
system.cpu.op_class_0::SimdReduceAlu                0      0.00%     67.85% # Class of committed instruction
system.cpu.op_class_0::SimdReduceCmp                0      0.00%     67.85% # Class of committed instruction
system.cpu.op_class_0::SimdFloatReduceAdd            0      0.00%     67.85% # Class of committed instruction
system.cpu.op_class_0::SimdFloatReduceCmp            0      0.00%     67.85% # Class of committed instruction
system.cpu.op_class_0::SimdAes                      0      0.00%     67.85% # Class of committed instruction
system.cpu.op_class_0::SimdAesMix                   0      0.00%     67.85% # Class of committed instruction
system.cpu.op_class_0::SimdSha1Hash                 0      0.00%     67.85% # Class of committed instruction
system.cpu.op_class_0::SimdSha1Hash2                0      0.00%     67.85% # Class of committed instruction
system.cpu.op_class_0::SimdSha256Hash               0      0.00%     67.85% # Class of committed instruction
system.cpu.op_class_0::SimdSha256Hash2              0      0.00%     67.85% # Class of committed instruction
system.cpu.op_class_0::SimdShaSigma2                0      0.00%     67.85% # Class of committed instruction
system.cpu.op_class_0::SimdShaSigma3                0      0.00%     67.85% # Class of committed instruction
system.cpu.op_class_0::SimdPredAlu                  0      0.00%     67.85% # Class of committed instruction
system.cpu.op_class_0::MemRead               20646465     18.87%     86.72% # Class of committed instruction
system.cpu.op_class_0::MemWrite              14534197     13.28%    100.00% # Class of committed instruction
system.cpu.op_class_0::FloatMemRead                 0      0.00%    100.00% # Class of committed instruction
system.cpu.op_class_0::FloatMemWrite                0      0.00%    100.00% # Class of committed instruction
system.cpu.op_class_0::IprAccess                    0      0.00%    100.00% # Class of committed instruction
system.cpu.op_class_0::InstPrefetch                 0      0.00%    100.00% # Class of committed instruction
system.cpu.op_class_0::total                109431937                       # Class of committed instruction
system.cpu.tickCycles                       117923757                       # Number of cycles that the object actually ticked
system.cpu.workload.numSyscalls                    86                       # Number of system calls
system.membus.snoop_filter.hit_multi_requests            0                       # Number of requests hitting in the snoop filter with multiple (>1) holders of the requested data.
system.membus.snoop_filter.hit_multi_snoops            0                       # Number of snoops hitting in the snoop filter with multiple (>1) holders of the requested data.
system.membus.snoop_filter.hit_single_requests         3510                       # Number of requests hitting in the snoop filter with a single holder of the requested data.
system.membus.snoop_filter.hit_single_snoops            0                       # Number of snoops hitting in the snoop filter with a single holder of the requested data.
system.membus.snoop_filter.tot_requests         23601                       # Total number of requests made to the snoop filter.
system.membus.snoop_filter.tot_snoops               0                       # Total number of snoops made to the snoop filter.
system.tol2bus.snoop_filter.hit_multi_requests         3901                       # Number of requests hitting in the snoop filter with multiple (>1) holders of the requested data.
system.tol2bus.snoop_filter.hit_multi_snoops            0                       # Number of snoops hitting in the snoop filter with multiple (>1) holders of the requested data.
system.tol2bus.snoop_filter.hit_single_requests      1008457                       # Number of requests hitting in the snoop filter with a single holder of the requested data.
system.tol2bus.snoop_filter.hit_single_snoops          197                       # Number of snoops hitting in the snoop filter with a single holder of the requested data.
system.tol2bus.snoop_filter.tot_requests      2017641                       # Total number of requests made to the snoop filter.
system.tol2bus.snoop_filter.tot_snoops            197                       # Total number of snoops made to the snoop filter.
system.membus.pwrStateResidencyTicks::UNDEFINED  66766248000                       # Cumulative time (in ticks) in various power states
system.membus.trans_dist::ReadResp                679                       # Transaction distribution
system.membus.trans_dist::WritebackDirty         3365                       # Transaction distribution
system.membus.trans_dist::CleanEvict              145                       # Transaction distribution
system.membus.trans_dist::ReadExReq             19412                       # Transaction distribution
system.membus.trans_dist::ReadExResp            19412                       # Transaction distribution
system.membus.trans_dist::ReadSharedReq           679                       # Transaction distribution
system.membus.pkt_count_system.l2.mem_side::system.mem_ctrls.port        43692                       # Packet count per connected master and slave (bytes)
system.membus.pkt_count::total                  43692                       # Packet count per connected master and slave (bytes)
system.membus.pkt_size_system.l2.mem_side::system.mem_ctrls.port      3002368                       # Cumulative packet size per connected master and slave (bytes)
system.membus.pkt_size::total                 3002368                       # Cumulative packet size per connected master and slave (bytes)
system.membus.snoops                                0                       # Total snoops (count)
system.membus.snoopTraffic                          0                       # Total snoop traffic (bytes)
system.membus.snoop_fanout::samples             20091                       # Request fanout histogram
system.membus.snoop_fanout::mean                    0                       # Request fanout histogram
system.membus.snoop_fanout::stdev                   0                       # Request fanout histogram
system.membus.snoop_fanout::underflows              0      0.00%      0.00% # Request fanout histogram
system.membus.snoop_fanout::0                   20091    100.00%    100.00% # Request fanout histogram
system.membus.snoop_fanout::1                       0      0.00%    100.00% # Request fanout histogram
system.membus.snoop_fanout::overflows               0      0.00%    100.00% # Request fanout histogram
system.membus.snoop_fanout::min_value               0                       # Request fanout histogram
system.membus.snoop_fanout::max_value               0                       # Request fanout histogram
system.membus.snoop_fanout::total               20091                       # Request fanout histogram
system.membus.respLayer1.occupancy          188843750                       # Layer occupancy (ticks)
system.membus.respLayer1.utilization              0.3                       # Layer utilization (%)
system.membus.reqLayer0.occupancy            55642000                       # Layer occupancy (ticks)
system.membus.reqLayer0.utilization               0.1                       # Layer utilization (%)
system.tol2bus.pwrStateResidencyTicks::UNDEFINED  66766248000                       # Cumulative time (in ticks) in various power states
system.tol2bus.trans_dist::ReadResp            983223                       # Transaction distribution
system.tol2bus.trans_dist::WritebackDirty        50852                       # Transaction distribution
system.tol2bus.trans_dist::WritebackClean       945426                       # Transaction distribution
system.tol2bus.trans_dist::CleanEvict           15881                       # Transaction distribution
system.tol2bus.trans_dist::ReadExReq            25966                       # Transaction distribution
system.tol2bus.trans_dist::ReadExResp           25966                       # Transaction distribution
system.tol2bus.trans_dist::ReadCleanReq        945651                       # Transaction distribution
system.tol2bus.trans_dist::ReadSharedReq        37572                       # Transaction distribution
system.tol2bus.pkt_count_system.cpu.icache.mem_side::system.l2.cpu_side      2836728                       # Packet count per connected master and slave (bytes)
system.tol2bus.pkt_count_system.cpu.dcache.mem_side::system.l2.cpu_side       190102                       # Packet count per connected master and slave (bytes)
system.tol2bus.pkt_count::total               3026830                       # Packet count per connected master and slave (bytes)
system.tol2bus.pkt_size_system.cpu.icache.mem_side::system.l2.cpu_side    242057856                       # Cumulative packet size per connected master and slave (bytes)
system.tol2bus.pkt_size_system.cpu.dcache.mem_side::system.l2.cpu_side     14211200                       # Cumulative packet size per connected master and slave (bytes)
system.tol2bus.pkt_size::total              256269056                       # Cumulative packet size per connected master and slave (bytes)
system.tol2bus.snoops                            3707                       # Total snoops (count)
system.tol2bus.snoopTraffic                    430720                       # Total snoop traffic (bytes)
system.tol2bus.snoop_fanout::samples          1012896                       # Request fanout histogram
system.tol2bus.snoop_fanout::mean            0.004051                       # Request fanout histogram
system.tol2bus.snoop_fanout::stdev           0.063517                       # Request fanout histogram
system.tol2bus.snoop_fanout::underflows             0      0.00%      0.00% # Request fanout histogram
system.tol2bus.snoop_fanout::0                1008793     99.59%     99.59% # Request fanout histogram
system.tol2bus.snoop_fanout::1                   4103      0.41%    100.00% # Request fanout histogram
system.tol2bus.snoop_fanout::2                      0      0.00%    100.00% # Request fanout histogram
system.tol2bus.snoop_fanout::overflows              0      0.00%    100.00% # Request fanout histogram
system.tol2bus.snoop_fanout::min_value              0                       # Request fanout histogram
system.tol2bus.snoop_fanout::max_value              1                       # Request fanout histogram
system.tol2bus.snoop_fanout::total            1012896                       # Request fanout histogram
system.tol2bus.reqLayer0.occupancy         2994646500                       # Layer occupancy (ticks)
system.tol2bus.reqLayer0.utilization              4.5                       # Layer utilization (%)
system.tol2bus.respLayer1.occupancy         158856477                       # Layer occupancy (ticks)
system.tol2bus.respLayer1.utilization             0.2                       # Layer utilization (%)
system.tol2bus.respLayer0.occupancy        2364128498                       # Layer occupancy (ticks)
system.tol2bus.respLayer0.utilization             3.5                       # Layer utilization (%)
system.voltage_domain.voltage                       1                       # Voltage in Volts
system.clk_domain.clock                          1000                       # Clock period in ticks
system.l2.pwrStateResidencyTicks::UNDEFINED  66766248000                       # Cumulative time (in ticks) in various power states
system.l2.demand_hits::.cpu.inst               945316                       # number of demand (read+write) hits
system.l2.demand_hits::.cpu.data                43778                       # number of demand (read+write) hits
system.l2.demand_hits::total                   989094                       # number of demand (read+write) hits
system.l2.overall_hits::.cpu.inst              945316                       # number of overall hits
system.l2.overall_hits::.cpu.data               43778                       # number of overall hits
system.l2.overall_hits::total                  989094                       # number of overall hits
system.l2.demand_misses::.cpu.inst                335                       # number of demand (read+write) misses
system.l2.demand_misses::.cpu.data              19760                       # number of demand (read+write) misses
system.l2.demand_misses::total                  20095                       # number of demand (read+write) misses
system.l2.overall_misses::.cpu.inst               335                       # number of overall misses
system.l2.overall_misses::.cpu.data             19760                       # number of overall misses
system.l2.overall_misses::total                 20095                       # number of overall misses
system.l2.demand_miss_latency::.cpu.inst     27641500                       # number of demand (read+write) miss cycles
system.l2.demand_miss_latency::.cpu.data   1746865000                       # number of demand (read+write) miss cycles
system.l2.demand_miss_latency::total       1774506500                       # number of demand (read+write) miss cycles
system.l2.overall_miss_latency::.cpu.inst     27641500                       # number of overall miss cycles
system.l2.overall_miss_latency::.cpu.data   1746865000                       # number of overall miss cycles
system.l2.overall_miss_latency::total      1774506500                       # number of overall miss cycles
system.l2.demand_accesses::.cpu.inst           945651                       # number of demand (read+write) accesses
system.l2.demand_accesses::.cpu.data            63538                       # number of demand (read+write) accesses
system.l2.demand_accesses::total              1009189                       # number of demand (read+write) accesses
system.l2.overall_accesses::.cpu.inst          945651                       # number of overall (read+write) accesses
system.l2.overall_accesses::.cpu.data           63538                       # number of overall (read+write) accesses
system.l2.overall_accesses::total             1009189                       # number of overall (read+write) accesses
system.l2.demand_miss_rate::.cpu.inst        0.000354                       # miss rate for demand accesses
system.l2.demand_miss_rate::.cpu.data        0.310995                       # miss rate for demand accesses
system.l2.demand_miss_rate::total            0.019912                       # miss rate for demand accesses
system.l2.overall_miss_rate::.cpu.inst       0.000354                       # miss rate for overall accesses
system.l2.overall_miss_rate::.cpu.data       0.310995                       # miss rate for overall accesses
system.l2.overall_miss_rate::total           0.019912                       # miss rate for overall accesses
system.l2.demand_avg_miss_latency::.cpu.inst 82511.940299                       # average overall miss latency
system.l2.demand_avg_miss_latency::.cpu.data 88404.099190                       # average overall miss latency
system.l2.demand_avg_miss_latency::total 88305.872107                       # average overall miss latency
system.l2.overall_avg_miss_latency::.cpu.inst 82511.940299                       # average overall miss latency
system.l2.overall_avg_miss_latency::.cpu.data 88404.099190                       # average overall miss latency
system.l2.overall_avg_miss_latency::total 88305.872107                       # average overall miss latency
system.l2.blocked_cycles::no_mshrs                  0                       # number of cycles access was blocked
system.l2.blocked_cycles::no_targets                0                       # number of cycles access was blocked
system.l2.blocked::no_mshrs                         0                       # number of cycles access was blocked
system.l2.blocked::no_targets                       0                       # number of cycles access was blocked
system.l2.avg_blocked_cycles::no_mshrs            nan                       # average number of cycles each access was blocked
system.l2.avg_blocked_cycles::no_targets          nan                       # average number of cycles each access was blocked
system.l2.writebacks::.writebacks                3365                       # number of writebacks
system.l2.writebacks::total                      3365                       # number of writebacks
system.l2.demand_mshr_hits::.cpu.data               4                       # number of demand (read+write) MSHR hits
system.l2.demand_mshr_hits::total                   4                       # number of demand (read+write) MSHR hits
system.l2.overall_mshr_hits::.cpu.data              4                       # number of overall MSHR hits
system.l2.overall_mshr_hits::total                  4                       # number of overall MSHR hits
system.l2.demand_mshr_misses::.cpu.inst           335                       # number of demand (read+write) MSHR misses
system.l2.demand_mshr_misses::.cpu.data         19756                       # number of demand (read+write) MSHR misses
system.l2.demand_mshr_misses::total             20091                       # number of demand (read+write) MSHR misses
system.l2.overall_mshr_misses::.cpu.inst          335                       # number of overall MSHR misses
system.l2.overall_mshr_misses::.cpu.data        19756                       # number of overall MSHR misses
system.l2.overall_mshr_misses::total            20091                       # number of overall MSHR misses
system.l2.demand_mshr_miss_latency::.cpu.inst     24291500                       # number of demand (read+write) MSHR miss cycles
system.l2.demand_mshr_miss_latency::.cpu.data   1549027500                       # number of demand (read+write) MSHR miss cycles
system.l2.demand_mshr_miss_latency::total   1573319000                       # number of demand (read+write) MSHR miss cycles
system.l2.overall_mshr_miss_latency::.cpu.inst     24291500                       # number of overall MSHR miss cycles
system.l2.overall_mshr_miss_latency::.cpu.data   1549027500                       # number of overall MSHR miss cycles
system.l2.overall_mshr_miss_latency::total   1573319000                       # number of overall MSHR miss cycles
system.l2.demand_mshr_miss_rate::.cpu.inst     0.000354                       # mshr miss rate for demand accesses
system.l2.demand_mshr_miss_rate::.cpu.data     0.310932                       # mshr miss rate for demand accesses
system.l2.demand_mshr_miss_rate::total       0.019908                       # mshr miss rate for demand accesses
system.l2.overall_mshr_miss_rate::.cpu.inst     0.000354                       # mshr miss rate for overall accesses
system.l2.overall_mshr_miss_rate::.cpu.data     0.310932                       # mshr miss rate for overall accesses
system.l2.overall_mshr_miss_rate::total      0.019908                       # mshr miss rate for overall accesses
system.l2.demand_avg_mshr_miss_latency::.cpu.inst 72511.940299                       # average overall mshr miss latency
system.l2.demand_avg_mshr_miss_latency::.cpu.data 78407.952015                       # average overall mshr miss latency
system.l2.demand_avg_mshr_miss_latency::total 78309.641133                       # average overall mshr miss latency
system.l2.overall_avg_mshr_miss_latency::.cpu.inst 72511.940299                       # average overall mshr miss latency
system.l2.overall_avg_mshr_miss_latency::.cpu.data 78407.952015                       # average overall mshr miss latency
system.l2.overall_avg_mshr_miss_latency::total 78309.641133                       # average overall mshr miss latency
system.l2.replacements                           3707                       # number of replacements
system.l2.WritebackDirty_hits::.writebacks        47487                       # number of WritebackDirty hits
system.l2.WritebackDirty_hits::total            47487                       # number of WritebackDirty hits
system.l2.WritebackDirty_accesses::.writebacks        47487                       # number of WritebackDirty accesses(hits+misses)
system.l2.WritebackDirty_accesses::total        47487                       # number of WritebackDirty accesses(hits+misses)
system.l2.WritebackClean_hits::.writebacks       944713                       # number of WritebackClean hits
system.l2.WritebackClean_hits::total           944713                       # number of WritebackClean hits
system.l2.WritebackClean_accesses::.writebacks       944713                       # number of WritebackClean accesses(hits+misses)
system.l2.WritebackClean_accesses::total       944713                       # number of WritebackClean accesses(hits+misses)
system.l2.ReadExReq_hits::.cpu.data              6554                       # number of ReadExReq hits
system.l2.ReadExReq_hits::total                  6554                       # number of ReadExReq hits
system.l2.ReadExReq_misses::.cpu.data           19412                       # number of ReadExReq misses
system.l2.ReadExReq_misses::total               19412                       # number of ReadExReq misses
system.l2.ReadExReq_miss_latency::.cpu.data   1714491500                       # number of ReadExReq miss cycles
system.l2.ReadExReq_miss_latency::total    1714491500                       # number of ReadExReq miss cycles
system.l2.ReadExReq_accesses::.cpu.data         25966                       # number of ReadExReq accesses(hits+misses)
system.l2.ReadExReq_accesses::total             25966                       # number of ReadExReq accesses(hits+misses)
system.l2.ReadExReq_miss_rate::.cpu.data     0.747593                       # miss rate for ReadExReq accesses
system.l2.ReadExReq_miss_rate::total         0.747593                       # miss rate for ReadExReq accesses
system.l2.ReadExReq_avg_miss_latency::.cpu.data 88321.218834                       # average ReadExReq miss latency
system.l2.ReadExReq_avg_miss_latency::total 88321.218834                       # average ReadExReq miss latency
system.l2.ReadExReq_mshr_misses::.cpu.data        19412                       # number of ReadExReq MSHR misses
system.l2.ReadExReq_mshr_misses::total          19412                       # number of ReadExReq MSHR misses
system.l2.ReadExReq_mshr_miss_latency::.cpu.data   1520371500                       # number of ReadExReq MSHR miss cycles
system.l2.ReadExReq_mshr_miss_latency::total   1520371500                       # number of ReadExReq MSHR miss cycles
system.l2.ReadExReq_mshr_miss_rate::.cpu.data     0.747593                       # mshr miss rate for ReadExReq accesses
system.l2.ReadExReq_mshr_miss_rate::total     0.747593                       # mshr miss rate for ReadExReq accesses
system.l2.ReadExReq_avg_mshr_miss_latency::.cpu.data 78321.218834                       # average ReadExReq mshr miss latency
system.l2.ReadExReq_avg_mshr_miss_latency::total 78321.218834                       # average ReadExReq mshr miss latency
system.l2.ReadCleanReq_hits::.cpu.inst         945316                       # number of ReadCleanReq hits
system.l2.ReadCleanReq_hits::total             945316                       # number of ReadCleanReq hits
system.l2.ReadCleanReq_misses::.cpu.inst          335                       # number of ReadCleanReq misses
system.l2.ReadCleanReq_misses::total              335                       # number of ReadCleanReq misses
system.l2.ReadCleanReq_miss_latency::.cpu.inst     27641500                       # number of ReadCleanReq miss cycles
system.l2.ReadCleanReq_miss_latency::total     27641500                       # number of ReadCleanReq miss cycles
system.l2.ReadCleanReq_accesses::.cpu.inst       945651                       # number of ReadCleanReq accesses(hits+misses)
system.l2.ReadCleanReq_accesses::total         945651                       # number of ReadCleanReq accesses(hits+misses)
system.l2.ReadCleanReq_miss_rate::.cpu.inst     0.000354                       # miss rate for ReadCleanReq accesses
system.l2.ReadCleanReq_miss_rate::total      0.000354                       # miss rate for ReadCleanReq accesses
system.l2.ReadCleanReq_avg_miss_latency::.cpu.inst 82511.940299                       # average ReadCleanReq miss latency
system.l2.ReadCleanReq_avg_miss_latency::total 82511.940299                       # average ReadCleanReq miss latency
system.l2.ReadCleanReq_mshr_misses::.cpu.inst          335                       # number of ReadCleanReq MSHR misses
system.l2.ReadCleanReq_mshr_misses::total          335                       # number of ReadCleanReq MSHR misses
system.l2.ReadCleanReq_mshr_miss_latency::.cpu.inst     24291500                       # number of ReadCleanReq MSHR miss cycles
system.l2.ReadCleanReq_mshr_miss_latency::total     24291500                       # number of ReadCleanReq MSHR miss cycles
system.l2.ReadCleanReq_mshr_miss_rate::.cpu.inst     0.000354                       # mshr miss rate for ReadCleanReq accesses
system.l2.ReadCleanReq_mshr_miss_rate::total     0.000354                       # mshr miss rate for ReadCleanReq accesses
system.l2.ReadCleanReq_avg_mshr_miss_latency::.cpu.inst 72511.940299                       # average ReadCleanReq mshr miss latency
system.l2.ReadCleanReq_avg_mshr_miss_latency::total 72511.940299                       # average ReadCleanReq mshr miss latency
system.l2.ReadSharedReq_hits::.cpu.data         37224                       # number of ReadSharedReq hits
system.l2.ReadSharedReq_hits::total             37224                       # number of ReadSharedReq hits
system.l2.ReadSharedReq_misses::.cpu.data          348                       # number of ReadSharedReq misses
system.l2.ReadSharedReq_misses::total             348                       # number of ReadSharedReq misses
system.l2.ReadSharedReq_miss_latency::.cpu.data     32373500                       # number of ReadSharedReq miss cycles
system.l2.ReadSharedReq_miss_latency::total     32373500                       # number of ReadSharedReq miss cycles
system.l2.ReadSharedReq_accesses::.cpu.data        37572                       # number of ReadSharedReq accesses(hits+misses)
system.l2.ReadSharedReq_accesses::total         37572                       # number of ReadSharedReq accesses(hits+misses)
system.l2.ReadSharedReq_miss_rate::.cpu.data     0.009262                       # miss rate for ReadSharedReq accesses
system.l2.ReadSharedReq_miss_rate::total     0.009262                       # miss rate for ReadSharedReq accesses
system.l2.ReadSharedReq_avg_miss_latency::.cpu.data 93027.298851                       # average ReadSharedReq miss latency
system.l2.ReadSharedReq_avg_miss_latency::total 93027.298851                       # average ReadSharedReq miss latency
system.l2.ReadSharedReq_mshr_hits::.cpu.data            4                       # number of ReadSharedReq MSHR hits
system.l2.ReadSharedReq_mshr_hits::total            4                       # number of ReadSharedReq MSHR hits
system.l2.ReadSharedReq_mshr_misses::.cpu.data          344                       # number of ReadSharedReq MSHR misses
system.l2.ReadSharedReq_mshr_misses::total          344                       # number of ReadSharedReq MSHR misses
system.l2.ReadSharedReq_mshr_miss_latency::.cpu.data     28656000                       # number of ReadSharedReq MSHR miss cycles
system.l2.ReadSharedReq_mshr_miss_latency::total     28656000                       # number of ReadSharedReq MSHR miss cycles
system.l2.ReadSharedReq_mshr_miss_rate::.cpu.data     0.009156                       # mshr miss rate for ReadSharedReq accesses
system.l2.ReadSharedReq_mshr_miss_rate::total     0.009156                       # mshr miss rate for ReadSharedReq accesses
system.l2.ReadSharedReq_avg_mshr_miss_latency::.cpu.data 83302.325581                       # average ReadSharedReq mshr miss latency
system.l2.ReadSharedReq_avg_mshr_miss_latency::total 83302.325581                       # average ReadSharedReq mshr miss latency
system.l2.tags.pwrStateResidencyTicks::UNDEFINED  66766248000                       # Cumulative time (in ticks) in various power states
system.l2.tags.tagsinuse                 13125.895324                       # Cycle average of tags in use
system.l2.tags.total_refs                     2013736                       # Total number of references to valid blocks.
system.l2.tags.sampled_refs                     20091                       # Sample count of references to valid blocks.
system.l2.tags.avg_refs                    100.230750                       # Average number of references to valid blocks.
system.l2.tags.warmup_cycle                     82000                       # Cycle when the warmup percentage was hit.
system.l2.tags.occ_blocks::.cpu.inst       212.533496                       # Average occupied blocks per requestor
system.l2.tags.occ_blocks::.cpu.data     12913.361828                       # Average occupied blocks per requestor
system.l2.tags.occ_percent::.cpu.inst        0.012972                       # Average percentage of cache occupancy
system.l2.tags.occ_percent::.cpu.data        0.788169                       # Average percentage of cache occupancy
system.l2.tags.occ_percent::total            0.801141                       # Average percentage of cache occupancy
system.l2.tags.occ_task_id_blocks::1024         16384                       # Occupied blocks per task id
system.l2.tags.age_task_id_blocks_1024::0            1                       # Occupied blocks per task id
system.l2.tags.age_task_id_blocks_1024::1           15                       # Occupied blocks per task id
system.l2.tags.age_task_id_blocks_1024::2          174                       # Occupied blocks per task id
system.l2.tags.age_task_id_blocks_1024::3         1636                       # Occupied blocks per task id
system.l2.tags.age_task_id_blocks_1024::4        14558                       # Occupied blocks per task id
system.l2.tags.occ_task_id_percent::1024            1                       # Percentage of cache occupancy per task id
system.l2.tags.tag_accesses                  16130011                       # Number of tag accesses
system.l2.tags.data_accesses                 16130011                       # Number of data accesses
system.cpu_voltage_domain.voltage                   1                       # Voltage in Volts
system.mem_ctrls.pwrStateResidencyTicks::UNDEFINED  66766248000                       # Cumulative time (in ticks) in various power states
system.mem_ctrls.bytes_read::.cpu.inst          42880                       # Number of bytes read from this memory
system.mem_ctrls.bytes_read::.cpu.data        2528768                       # Number of bytes read from this memory
system.mem_ctrls.bytes_read::total            2571648                       # Number of bytes read from this memory
system.mem_ctrls.bytes_inst_read::.cpu.inst        42880                       # Number of instructions bytes read from this memory
system.mem_ctrls.bytes_inst_read::total         42880                       # Number of instructions bytes read from this memory
system.mem_ctrls.bytes_written::.writebacks       430720                       # Number of bytes written to this memory
system.mem_ctrls.bytes_written::total          430720                       # Number of bytes written to this memory
system.mem_ctrls.num_reads::.cpu.inst             335                       # Number of read requests responded to by this memory
system.mem_ctrls.num_reads::.cpu.data           19756                       # Number of read requests responded to by this memory
system.mem_ctrls.num_reads::total               20091                       # Number of read requests responded to by this memory
system.mem_ctrls.num_writes::.writebacks         3365                       # Number of write requests responded to by this memory
system.mem_ctrls.num_writes::total               3365                       # Number of write requests responded to by this memory
system.mem_ctrls.bw_read::.cpu.inst            642241                       # Total read bandwidth from this memory (bytes/s)
system.mem_ctrls.bw_read::.cpu.data          37874945                       # Total read bandwidth from this memory (bytes/s)
system.mem_ctrls.bw_read::total              38517186                       # Total read bandwidth from this memory (bytes/s)
system.mem_ctrls.bw_inst_read::.cpu.inst       642241                       # Instruction read bandwidth from this memory (bytes/s)
system.mem_ctrls.bw_inst_read::total           642241                       # Instruction read bandwidth from this memory (bytes/s)
system.mem_ctrls.bw_write::.writebacks        6451164                       # Write bandwidth from this memory (bytes/s)
system.mem_ctrls.bw_write::total              6451164                       # Write bandwidth from this memory (bytes/s)
system.mem_ctrls.bw_total::.writebacks        6451164                       # Total bandwidth to/from this memory (bytes/s)
system.mem_ctrls.bw_total::.cpu.inst           642241                       # Total bandwidth to/from this memory (bytes/s)
system.mem_ctrls.bw_total::.cpu.data         37874945                       # Total bandwidth to/from this memory (bytes/s)
system.mem_ctrls.bw_total::total             44968350                       # Total bandwidth to/from this memory (bytes/s)
system.mem_ctrls.avgPriority_.writebacks::samples      6730.00                       # Average QoS priority value for accepted requests
system.mem_ctrls.avgPriority_.cpu.inst::samples       670.00                       # Average QoS priority value for accepted requests
system.mem_ctrls.avgPriority_.cpu.data::samples     39512.00                       # Average QoS priority value for accepted requests
system.mem_ctrls.priorityMinLatency      0.000000018750                       # per QoS priority minimum request to response latency (s)
system.mem_ctrls.priorityMaxLatency      0.017055903500                       # per QoS priority maximum request to response latency (s)
system.mem_ctrls.numReadWriteTurnArounds          372                       # Number of turnarounds from READ to WRITE
system.mem_ctrls.numWriteReadTurnArounds          372                       # Number of turnarounds from WRITE to READ
system.mem_ctrls.numStayReadState               80757                       # Number of times bus staying in READ state
system.mem_ctrls.numStayWriteState               6353                       # Number of times bus staying in WRITE state
system.mem_ctrls.readReqs                       20091                       # Number of read requests accepted
system.mem_ctrls.writeReqs                       3365                       # Number of write requests accepted
system.mem_ctrls.readBursts                     40182                       # Number of DRAM read bursts, including those serviced by the write queue
system.mem_ctrls.writeBursts                     6730                       # Number of DRAM write bursts, including those merged in the write queue
system.mem_ctrls.servicedByWrQ                      0                       # Number of DRAM read bursts serviced by the write queue
system.mem_ctrls.mergedWrBursts                     0                       # Number of DRAM write bursts merged with an existing one
system.mem_ctrls.neitherReadNorWriteReqs            0                       # Number of requests that are neither read nor write
system.mem_ctrls.perBankRdBursts::0              2504                       # Per bank write bursts
system.mem_ctrls.perBankRdBursts::1              2384                       # Per bank write bursts
system.mem_ctrls.perBankRdBursts::2              2366                       # Per bank write bursts
system.mem_ctrls.perBankRdBursts::3              2654                       # Per bank write bursts
system.mem_ctrls.perBankRdBursts::4              2706                       # Per bank write bursts
system.mem_ctrls.perBankRdBursts::5              2464                       # Per bank write bursts
system.mem_ctrls.perBankRdBursts::6              2442                       # Per bank write bursts
system.mem_ctrls.perBankRdBursts::7              2484                       # Per bank write bursts
system.mem_ctrls.perBankRdBursts::8              2476                       # Per bank write bursts
system.mem_ctrls.perBankRdBursts::9              2522                       # Per bank write bursts
system.mem_ctrls.perBankRdBursts::10             2512                       # Per bank write bursts
system.mem_ctrls.perBankRdBursts::11             2534                       # Per bank write bursts
system.mem_ctrls.perBankRdBursts::12             2540                       # Per bank write bursts
system.mem_ctrls.perBankRdBursts::13             2486                       # Per bank write bursts
system.mem_ctrls.perBankRdBursts::14             2592                       # Per bank write bursts
system.mem_ctrls.perBankRdBursts::15             2516                       # Per bank write bursts
system.mem_ctrls.perBankWrBursts::0               391                       # Per bank write bursts
system.mem_ctrls.perBankWrBursts::1               300                       # Per bank write bursts
system.mem_ctrls.perBankWrBursts::2               298                       # Per bank write bursts
system.mem_ctrls.perBankWrBursts::3               518                       # Per bank write bursts
system.mem_ctrls.perBankWrBursts::4               630                       # Per bank write bursts
system.mem_ctrls.perBankWrBursts::5               416                       # Per bank write bursts
system.mem_ctrls.perBankWrBursts::6               394                       # Per bank write bursts
system.mem_ctrls.perBankWrBursts::7               412                       # Per bank write bursts
system.mem_ctrls.perBankWrBursts::8               402                       # Per bank write bursts
system.mem_ctrls.perBankWrBursts::9               420                       # Per bank write bursts
system.mem_ctrls.perBankWrBursts::10              422                       # Per bank write bursts
system.mem_ctrls.perBankWrBursts::11              404                       # Per bank write bursts
system.mem_ctrls.perBankWrBursts::12              412                       # Per bank write bursts
system.mem_ctrls.perBankWrBursts::13              410                       # Per bank write bursts
system.mem_ctrls.perBankWrBursts::14              456                       # Per bank write bursts
system.mem_ctrls.perBankWrBursts::15              422                       # Per bank write bursts
system.mem_ctrls.avgRdQLen                       2.01                       # Average read queue length when enqueuing
system.mem_ctrls.avgWrQLen                      13.72                       # Average write queue length when enqueuing
system.mem_ctrls.totQLat                    639098500                       # Total ticks spent queuing
system.mem_ctrls.totBusLat                  200910000                       # Total ticks spent in databus transfers
system.mem_ctrls.totMemAccLat              1392511000                       # Total ticks spent from burst creation until serviced by the DRAM
system.mem_ctrls.avgQLat                     15905.09                       # Average queueing delay per DRAM burst
system.mem_ctrls.avgBusLat                    5000.00                       # Average bus latency per DRAM burst
system.mem_ctrls.avgMemAccLat                34655.09                       # Average memory access latency per DRAM burst
system.mem_ctrls.numRdRetry                         0                       # Number of times read queue was full causing retry
system.mem_ctrls.numWrRetry                         0                       # Number of times write queue was full causing retry
system.mem_ctrls.readRowHits                    28474                       # Number of row buffer hits during reads
system.mem_ctrls.writeRowHits                    5760                       # Number of row buffer hits during writes
system.mem_ctrls.readRowHitRate                 70.86                       # Row buffer hit rate for reads
system.mem_ctrls.writeRowHitRate                85.59                       # Row buffer hit rate for writes
system.mem_ctrls.readPktSize::0                     0                       # Read request sizes (log2)
system.mem_ctrls.readPktSize::1                     0                       # Read request sizes (log2)
system.mem_ctrls.readPktSize::2                     0                       # Read request sizes (log2)
system.mem_ctrls.readPktSize::3                     0                       # Read request sizes (log2)
system.mem_ctrls.readPktSize::4                     0                       # Read request sizes (log2)
system.mem_ctrls.readPktSize::5                     0                       # Read request sizes (log2)
system.mem_ctrls.readPktSize::6                 40182                       # Read request sizes (log2)
system.mem_ctrls.writePktSize::0                    0                       # Write request sizes (log2)
system.mem_ctrls.writePktSize::1                    0                       # Write request sizes (log2)
system.mem_ctrls.writePktSize::2                    0                       # Write request sizes (log2)
system.mem_ctrls.writePktSize::3                    0                       # Write request sizes (log2)
system.mem_ctrls.writePktSize::4                    0                       # Write request sizes (log2)
system.mem_ctrls.writePktSize::5                    0                       # Write request sizes (log2)
system.mem_ctrls.writePktSize::6                 6730                       # Write request sizes (log2)
system.mem_ctrls.rdQLenPdf::0                   19991                       # What read queue length does an incoming req see
system.mem_ctrls.rdQLenPdf::1                   19995                       # What read queue length does an incoming req see
system.mem_ctrls.rdQLenPdf::2                      97                       # What read queue length does an incoming req see
system.mem_ctrls.rdQLenPdf::3                      94                       # What read queue length does an incoming req see
system.mem_ctrls.rdQLenPdf::4                       3                       # What read queue length does an incoming req see
system.mem_ctrls.rdQLenPdf::5                       2                       # What read queue length does an incoming req see
system.mem_ctrls.rdQLenPdf::6                       0                       # What read queue length does an incoming req see
system.mem_ctrls.rdQLenPdf::7                       0                       # What read queue length does an incoming req see
system.mem_ctrls.rdQLenPdf::8                       0                       # What read queue length does an incoming req see
system.mem_ctrls.rdQLenPdf::9                       0                       # What read queue length does an incoming req see
system.mem_ctrls.rdQLenPdf::10                      0                       # What read queue length does an incoming req see
system.mem_ctrls.rdQLenPdf::11                      0                       # What read queue length does an incoming req see
system.mem_ctrls.rdQLenPdf::12                      0                       # What read queue length does an incoming req see
system.mem_ctrls.rdQLenPdf::13                      0                       # What read queue length does an incoming req see
system.mem_ctrls.rdQLenPdf::14                      0                       # What read queue length does an incoming req see
system.mem_ctrls.rdQLenPdf::15                      0                       # What read queue length does an incoming req see
system.mem_ctrls.rdQLenPdf::16                      0                       # What read queue length does an incoming req see
system.mem_ctrls.rdQLenPdf::17                      0                       # What read queue length does an incoming req see
system.mem_ctrls.rdQLenPdf::18                      0                       # What read queue length does an incoming req see
system.mem_ctrls.rdQLenPdf::19                      0                       # What read queue length does an incoming req see
system.mem_ctrls.rdQLenPdf::20                      0                       # What read queue length does an incoming req see
system.mem_ctrls.rdQLenPdf::21                      0                       # What read queue length does an incoming req see
system.mem_ctrls.rdQLenPdf::22                      0                       # What read queue length does an incoming req see
system.mem_ctrls.rdQLenPdf::23                      0                       # What read queue length does an incoming req see
system.mem_ctrls.rdQLenPdf::24                      0                       # What read queue length does an incoming req see
system.mem_ctrls.rdQLenPdf::25                      0                       # What read queue length does an incoming req see
system.mem_ctrls.rdQLenPdf::26                      0                       # What read queue length does an incoming req see
system.mem_ctrls.rdQLenPdf::27                      0                       # What read queue length does an incoming req see
system.mem_ctrls.rdQLenPdf::28                      0                       # What read queue length does an incoming req see
system.mem_ctrls.rdQLenPdf::29                      0                       # What read queue length does an incoming req see
system.mem_ctrls.rdQLenPdf::30                      0                       # What read queue length does an incoming req see
system.mem_ctrls.rdQLenPdf::31                      0                       # What read queue length does an incoming req see
system.mem_ctrls.wrQLenPdf::0                       1                       # What write queue length does an incoming req see
system.mem_ctrls.wrQLenPdf::1                       1                       # What write queue length does an incoming req see
system.mem_ctrls.wrQLenPdf::2                       1                       # What write queue length does an incoming req see
system.mem_ctrls.wrQLenPdf::3                       1                       # What write queue length does an incoming req see
system.mem_ctrls.wrQLenPdf::4                       1                       # What write queue length does an incoming req see
system.mem_ctrls.wrQLenPdf::5                       1                       # What write queue length does an incoming req see
system.mem_ctrls.wrQLenPdf::6                       1                       # What write queue length does an incoming req see
system.mem_ctrls.wrQLenPdf::7                       1                       # What write queue length does an incoming req see
system.mem_ctrls.wrQLenPdf::8                       1                       # What write queue length does an incoming req see
system.mem_ctrls.wrQLenPdf::9                       1                       # What write queue length does an incoming req see
system.mem_ctrls.wrQLenPdf::10                      1                       # What write queue length does an incoming req see
system.mem_ctrls.wrQLenPdf::11                      1                       # What write queue length does an incoming req see
system.mem_ctrls.wrQLenPdf::12                      1                       # What write queue length does an incoming req see
system.mem_ctrls.wrQLenPdf::13                      1                       # What write queue length does an incoming req see
system.mem_ctrls.wrQLenPdf::14                      1                       # What write queue length does an incoming req see
system.mem_ctrls.wrQLenPdf::15                    373                       # What write queue length does an incoming req see
system.mem_ctrls.wrQLenPdf::16                    373                       # What write queue length does an incoming req see
system.mem_ctrls.wrQLenPdf::17                    373                       # What write queue length does an incoming req see
system.mem_ctrls.wrQLenPdf::18                    373                       # What write queue length does an incoming req see
system.mem_ctrls.wrQLenPdf::19                    373                       # What write queue length does an incoming req see
system.mem_ctrls.wrQLenPdf::20                    373                       # What write queue length does an incoming req see
system.mem_ctrls.wrQLenPdf::21                    373                       # What write queue length does an incoming req see
system.mem_ctrls.wrQLenPdf::22                    373                       # What write queue length does an incoming req see
system.mem_ctrls.wrQLenPdf::23                    372                       # What write queue length does an incoming req see
system.mem_ctrls.wrQLenPdf::24                    372                       # What write queue length does an incoming req see
system.mem_ctrls.wrQLenPdf::25                    372                       # What write queue length does an incoming req see
system.mem_ctrls.wrQLenPdf::26                    376                       # What write queue length does an incoming req see
system.mem_ctrls.wrQLenPdf::27                    376                       # What write queue length does an incoming req see
system.mem_ctrls.wrQLenPdf::28                    373                       # What write queue length does an incoming req see
system.mem_ctrls.wrQLenPdf::29                    373                       # What write queue length does an incoming req see
system.mem_ctrls.wrQLenPdf::30                    372                       # What write queue length does an incoming req see
system.mem_ctrls.wrQLenPdf::31                    372                       # What write queue length does an incoming req see
system.mem_ctrls.wrQLenPdf::32                    372                       # What write queue length does an incoming req see
system.mem_ctrls.wrQLenPdf::33                      1                       # What write queue length does an incoming req see
system.mem_ctrls.wrQLenPdf::34                      0                       # What write queue length does an incoming req see
system.mem_ctrls.wrQLenPdf::35                      0                       # What write queue length does an incoming req see
system.mem_ctrls.wrQLenPdf::36                      0                       # What write queue length does an incoming req see
system.mem_ctrls.wrQLenPdf::37                      0                       # What write queue length does an incoming req see
system.mem_ctrls.wrQLenPdf::38                      0                       # What write queue length does an incoming req see
system.mem_ctrls.wrQLenPdf::39                      0                       # What write queue length does an incoming req see
system.mem_ctrls.wrQLenPdf::40                      0                       # What write queue length does an incoming req see
system.mem_ctrls.wrQLenPdf::41                      0                       # What write queue length does an incoming req see
system.mem_ctrls.wrQLenPdf::42                      0                       # What write queue length does an incoming req see
system.mem_ctrls.wrQLenPdf::43                      0                       # What write queue length does an incoming req see
system.mem_ctrls.wrQLenPdf::44                      0                       # What write queue length does an incoming req see
system.mem_ctrls.wrQLenPdf::45                      0                       # What write queue length does an incoming req see
system.mem_ctrls.wrQLenPdf::46                      0                       # What write queue length does an incoming req see
system.mem_ctrls.wrQLenPdf::47                      0                       # What write queue length does an incoming req see
system.mem_ctrls.wrQLenPdf::48                      0                       # What write queue length does an incoming req see
system.mem_ctrls.wrQLenPdf::49                      0                       # What write queue length does an incoming req see
system.mem_ctrls.wrQLenPdf::50                      0                       # What write queue length does an incoming req see
system.mem_ctrls.wrQLenPdf::51                      0                       # What write queue length does an incoming req see
system.mem_ctrls.wrQLenPdf::52                      0                       # What write queue length does an incoming req see
system.mem_ctrls.wrQLenPdf::53                      0                       # What write queue length does an incoming req see
system.mem_ctrls.wrQLenPdf::54                      0                       # What write queue length does an incoming req see
system.mem_ctrls.wrQLenPdf::55                      0                       # What write queue length does an incoming req see
system.mem_ctrls.wrQLenPdf::56                      0                       # What write queue length does an incoming req see
system.mem_ctrls.wrQLenPdf::57                      0                       # What write queue length does an incoming req see
system.mem_ctrls.wrQLenPdf::58                      0                       # What write queue length does an incoming req see
system.mem_ctrls.wrQLenPdf::59                      0                       # What write queue length does an incoming req see
system.mem_ctrls.wrQLenPdf::60                      0                       # What write queue length does an incoming req see
system.mem_ctrls.wrQLenPdf::61                      0                       # What write queue length does an incoming req see
system.mem_ctrls.wrQLenPdf::62                      0                       # What write queue length does an incoming req see
system.mem_ctrls.wrQLenPdf::63                      0                       # What write queue length does an incoming req see
system.mem_ctrls.bytesPerActivate::samples        12654                       # Bytes accessed per row activation
system.mem_ctrls.bytesPerActivate::mean    237.139877                       # Bytes accessed per row activation
system.mem_ctrls.bytesPerActivate::gmean   199.055946                       # Bytes accessed per row activation
system.mem_ctrls.bytesPerActivate::stdev   170.671612                       # Bytes accessed per row activation
system.mem_ctrls.bytesPerActivate::0-127           44      0.35%      0.35% # Bytes accessed per row activation
system.mem_ctrls.bytesPerActivate::128-255         6785     53.62%     53.97% # Bytes accessed per row activation
system.mem_ctrls.bytesPerActivate::256-383         3519     27.81%     81.78% # Bytes accessed per row activation
system.mem_ctrls.bytesPerActivate::384-511         1024      8.09%     89.87% # Bytes accessed per row activation
system.mem_ctrls.bytesPerActivate::512-639          726      5.74%     95.61% # Bytes accessed per row activation
system.mem_ctrls.bytesPerActivate::640-767          247      1.95%     97.56% # Bytes accessed per row activation
system.mem_ctrls.bytesPerActivate::768-895           50      0.40%     97.95% # Bytes accessed per row activation
system.mem_ctrls.bytesPerActivate::896-1023           63      0.50%     98.45% # Bytes accessed per row activation
system.mem_ctrls.bytesPerActivate::1024-1151          196      1.55%    100.00% # Bytes accessed per row activation
system.mem_ctrls.bytesPerActivate::total        12654                       # Bytes accessed per row activation
system.mem_ctrls.rdPerTurnAround::samples          372                       # Reads before turning the bus around for writes
system.mem_ctrls.rdPerTurnAround::mean     107.994624                       # Reads before turning the bus around for writes
system.mem_ctrls.rdPerTurnAround::gmean     20.149166                       # Reads before turning the bus around for writes
system.mem_ctrls.rdPerTurnAround::stdev   1485.485895                       # Reads before turning the bus around for writes
system.mem_ctrls.rdPerTurnAround::0-1023          369     99.19%     99.19% # Reads before turning the bus around for writes
system.mem_ctrls.rdPerTurnAround::1024-2047            2      0.54%     99.73% # Reads before turning the bus around for writes
system.mem_ctrls.rdPerTurnAround::27648-28671            1      0.27%    100.00% # Reads before turning the bus around for writes
system.mem_ctrls.rdPerTurnAround::total           372                       # Reads before turning the bus around for writes
system.mem_ctrls.wrPerTurnAround::samples          372                       # Writes before turning the bus around for reads
system.mem_ctrls.wrPerTurnAround::mean      18.029570                       # Writes before turning the bus around for reads
system.mem_ctrls.wrPerTurnAround::gmean     18.028129                       # Writes before turning the bus around for reads
system.mem_ctrls.wrPerTurnAround::stdev      0.236066                       # Writes before turning the bus around for reads
system.mem_ctrls.wrPerTurnAround::18              366     98.39%     98.39% # Writes before turning the bus around for reads
system.mem_ctrls.wrPerTurnAround::19                1      0.27%     98.66% # Writes before turning the bus around for reads
system.mem_ctrls.wrPerTurnAround::20                5      1.34%    100.00% # Writes before turning the bus around for reads
[...]
system.cpu.icache.tags.occ_task_id_blocks::1024          225                       # Occupied blocks per task id
system.cpu.icache.tags.age_task_id_blocks_1024::0           15                       # Occupied blocks per task id
system.cpu.icache.tags.age_task_id_blocks_1024::2            6                       # Occupied blocks per task id
system.cpu.icache.tags.age_task_id_blocks_1024::4          204                       # Occupied blocks per task id
system.cpu.icache.tags.occ_task_id_percent::1024     0.878906                       # Percentage of cache occupancy per task id
system.cpu.icache.tags.tag_accesses          54743881                       # Number of tag accesses
system.cpu.icache.tags.data_accesses         54743881                       # Number of data accesses
system.cpu.dtb.walker.pwrStateResidencyTicks::UNDEFINED  66766248000                       # Cumulative time (in ticks) in various power states
system.cpu.dtb.stage2_mmu.stage2_tlb.walker.pwrStateResidencyTicks::UNDEFINED  66766248000                       # Cumulative time (in ticks) in various power states
system.cpu.dcache.pwrStateResidencyTicks::UNDEFINED  66766248000                       # Cumulative time (in ticks) in various power states
system.cpu.dcache.demand_hits::.cpu.data     34756415                       # number of demand (read+write) hits
system.cpu.dcache.demand_hits::total         34756415                       # number of demand (read+write) hits
system.cpu.dcache.overall_hits::.cpu.data     34759689                       # number of overall hits
system.cpu.dcache.overall_hits::total        34759689                       # number of overall hits
system.cpu.dcache.demand_misses::.cpu.data        80104                       # number of demand (read+write) misses
system.cpu.dcache.demand_misses::total          80104                       # number of demand (read+write) misses
system.cpu.dcache.overall_misses::.cpu.data        80191                       # number of overall misses
system.cpu.dcache.overall_misses::total         80191                       # number of overall misses
system.cpu.dcache.demand_miss_latency::.cpu.data   3113151000                       # number of demand (read+write) miss cycles
system.cpu.dcache.demand_miss_latency::total   3113151000                       # number of demand (read+write) miss cycles
system.cpu.dcache.overall_miss_latency::.cpu.data   3113151000                       # number of overall miss cycles
system.cpu.dcache.overall_miss_latency::total   3113151000                       # number of overall miss cycles
system.cpu.dcache.demand_accesses::.cpu.data     34836519                       # number of demand (read+write) accesses
system.cpu.dcache.demand_accesses::total     34836519                       # number of demand (read+write) accesses
system.cpu.dcache.overall_accesses::.cpu.data     34839880                       # number of overall (read+write) accesses
system.cpu.dcache.overall_accesses::total     34839880                       # number of overall (read+write) accesses
system.cpu.dcache.demand_miss_rate::.cpu.data     0.002299                       # miss rate for demand accesses
system.cpu.dcache.demand_miss_rate::total     0.002299                       # miss rate for demand accesses
system.cpu.dcache.overall_miss_rate::.cpu.data     0.002302                       # miss rate for overall accesses
system.cpu.dcache.overall_miss_rate::total     0.002302                       # miss rate for overall accesses
system.cpu.dcache.demand_avg_miss_latency::.cpu.data 38863.864476                       # average overall miss latency
system.cpu.dcache.demand_avg_miss_latency::total 38863.864476                       # average overall miss latency
system.cpu.dcache.overall_avg_miss_latency::.cpu.data 38821.700690                       # average overall miss latency
system.cpu.dcache.overall_avg_miss_latency::total 38821.700690                       # average overall miss latency
system.cpu.dcache.blocked_cycles::no_mshrs            0                       # number of cycles access was blocked
system.cpu.dcache.blocked_cycles::no_targets            0                       # number of cycles access was blocked
system.cpu.dcache.blocked::no_mshrs                 0                       # number of cycles access was blocked
system.cpu.dcache.blocked::no_targets               0                       # number of cycles access was blocked
system.cpu.dcache.avg_blocked_cycles::no_mshrs          nan                       # average number of cycles each access was blocked
system.cpu.dcache.avg_blocked_cycles::no_targets          nan                       # average number of cycles each access was blocked
system.cpu.dcache.writebacks::.writebacks        47487                       # number of writebacks
system.cpu.dcache.writebacks::total             47487                       # number of writebacks
system.cpu.dcache.demand_mshr_hits::.cpu.data        16612                       # number of demand (read+write) MSHR hits
system.cpu.dcache.demand_mshr_hits::total        16612                       # number of demand (read+write) MSHR hits
system.cpu.dcache.overall_mshr_hits::.cpu.data        16612                       # number of overall MSHR hits
system.cpu.dcache.overall_mshr_hits::total        16612                       # number of overall MSHR hits
system.cpu.dcache.demand_mshr_misses::.cpu.data        63492                       # number of demand (read+write) MSHR misses
system.cpu.dcache.demand_mshr_misses::total        63492                       # number of demand (read+write) MSHR misses
system.cpu.dcache.overall_mshr_misses::.cpu.data        63536                       # number of overall MSHR misses
system.cpu.dcache.overall_mshr_misses::total        63536                       # number of overall MSHR misses
system.cpu.dcache.demand_mshr_miss_latency::.cpu.data   2339176500                       # number of demand (read+write) MSHR miss cycles
system.cpu.dcache.demand_mshr_miss_latency::total   2339176500                       # number of demand (read+write) MSHR miss cycles
system.cpu.dcache.overall_mshr_miss_latency::.cpu.data   2340272000                       # number of overall MSHR miss cycles
system.cpu.dcache.overall_mshr_miss_latency::total   2340272000                       # number of overall MSHR miss cycles
system.cpu.dcache.demand_mshr_miss_rate::.cpu.data     0.001823                       # mshr miss rate for demand accesses
system.cpu.dcache.demand_mshr_miss_rate::total     0.001823                       # mshr miss rate for demand accesses
system.cpu.dcache.overall_mshr_miss_rate::.cpu.data     0.001824                       # mshr miss rate for overall accesses
system.cpu.dcache.overall_mshr_miss_rate::total     0.001824                       # mshr miss rate for overall accesses
system.cpu.dcache.demand_avg_mshr_miss_latency::.cpu.data 36842.066717                       # average overall mshr miss latency
system.cpu.dcache.demand_avg_mshr_miss_latency::total 36842.066717                       # average overall mshr miss latency
system.cpu.dcache.overall_avg_mshr_miss_latency::.cpu.data 36833.795014                       # average overall mshr miss latency
system.cpu.dcache.overall_avg_mshr_miss_latency::total 36833.795014                       # average overall mshr miss latency
system.cpu.dcache.replacements                  63026                       # number of replacements
system.cpu.dcache.ReadReq_hits::.cpu.data     20585627                       # number of ReadReq hits
system.cpu.dcache.ReadReq_hits::total        20585627                       # number of ReadReq hits
system.cpu.dcache.ReadReq_misses::.cpu.data        40716                       # number of ReadReq misses
system.cpu.dcache.ReadReq_misses::total         40716                       # number of ReadReq misses
system.cpu.dcache.ReadReq_miss_latency::.cpu.data    595057500                       # number of ReadReq miss cycles
system.cpu.dcache.ReadReq_miss_latency::total    595057500                       # number of ReadReq miss cycles
system.cpu.dcache.ReadReq_accesses::.cpu.data     20626343                       # number of ReadReq accesses(hits+misses)
system.cpu.dcache.ReadReq_accesses::total     20626343                       # number of ReadReq accesses(hits+misses)
system.cpu.dcache.ReadReq_miss_rate::.cpu.data     0.001974                       # miss rate for ReadReq accesses
system.cpu.dcache.ReadReq_miss_rate::total     0.001974                       # miss rate for ReadReq accesses
system.cpu.dcache.ReadReq_avg_miss_latency::.cpu.data 14614.832007                       # average ReadReq miss latency
system.cpu.dcache.ReadReq_avg_miss_latency::total 14614.832007                       # average ReadReq miss latency
system.cpu.dcache.ReadReq_mshr_hits::.cpu.data         3169                       # number of ReadReq MSHR hits
system.cpu.dcache.ReadReq_mshr_hits::total         3169                       # number of ReadReq MSHR hits
system.cpu.dcache.ReadReq_mshr_misses::.cpu.data        37547                       # number of ReadReq MSHR misses
system.cpu.dcache.ReadReq_mshr_misses::total        37547                       # number of ReadReq MSHR misses
system.cpu.dcache.ReadReq_mshr_miss_latency::.cpu.data    499963500                       # number of ReadReq MSHR miss cycles
system.cpu.dcache.ReadReq_mshr_miss_latency::total    499963500                       # number of ReadReq MSHR miss cycles
system.cpu.dcache.ReadReq_mshr_miss_rate::.cpu.data     0.001820                       # mshr miss rate for ReadReq accesses
system.cpu.dcache.ReadReq_mshr_miss_rate::total     0.001820                       # mshr miss rate for ReadReq accesses
system.cpu.dcache.ReadReq_avg_mshr_miss_latency::.cpu.data 13315.671026                       # average ReadReq mshr miss latency
system.cpu.dcache.ReadReq_avg_mshr_miss_latency::total 13315.671026                       # average ReadReq mshr miss latency
system.cpu.dcache.WriteReq_hits::.cpu.data     14170788                       # number of WriteReq hits
system.cpu.dcache.WriteReq_hits::total       14170788                       # number of WriteReq hits
system.cpu.dcache.WriteReq_misses::.cpu.data        39388                       # number of WriteReq misses
system.cpu.dcache.WriteReq_misses::total        39388                       # number of WriteReq misses
system.cpu.dcache.WriteReq_miss_latency::.cpu.data   2518093500                       # number of WriteReq miss cycles
system.cpu.dcache.WriteReq_miss_latency::total   2518093500                       # number of WriteReq miss cycles
system.cpu.dcache.WriteReq_accesses::.cpu.data     14210176                       # number of WriteReq accesses(hits+misses)
system.cpu.dcache.WriteReq_accesses::total     14210176                       # number of WriteReq accesses(hits+misses)
system.cpu.dcache.WriteReq_miss_rate::.cpu.data     0.002772                       # miss rate for WriteReq accesses
system.cpu.dcache.WriteReq_miss_rate::total     0.002772                       # miss rate for WriteReq accesses
system.cpu.dcache.WriteReq_avg_miss_latency::.cpu.data 63930.473748                       # average WriteReq miss latency
system.cpu.dcache.WriteReq_avg_miss_latency::total 63930.473748                       # average WriteReq miss latency
system.cpu.dcache.WriteReq_mshr_hits::.cpu.data        13443                       # number of WriteReq MSHR hits
system.cpu.dcache.WriteReq_mshr_hits::total        13443                       # number of WriteReq MSHR hits
system.cpu.dcache.WriteReq_mshr_misses::.cpu.data        25945                       # number of WriteReq MSHR misses
system.cpu.dcache.WriteReq_mshr_misses::total        25945                       # number of WriteReq MSHR misses
system.cpu.dcache.WriteReq_mshr_miss_latency::.cpu.data   1839213000                       # number of WriteReq MSHR miss cycles
system.cpu.dcache.WriteReq_mshr_miss_latency::total   1839213000                       # number of WriteReq MSHR miss cycles
system.cpu.dcache.WriteReq_mshr_miss_rate::.cpu.data     0.001826                       # mshr miss rate for WriteReq accesses
system.cpu.dcache.WriteReq_mshr_miss_rate::total     0.001826                       # mshr miss rate for WriteReq accesses
system.cpu.dcache.WriteReq_avg_mshr_miss_latency::.cpu.data 70888.918867                       # average WriteReq mshr miss latency
system.cpu.dcache.WriteReq_avg_mshr_miss_latency::total 70888.918867                       # average WriteReq mshr miss latency
system.cpu.dcache.SoftPFReq_hits::.cpu.data         3274                       # number of SoftPFReq hits
system.cpu.dcache.SoftPFReq_hits::total          3274                       # number of SoftPFReq hits
system.cpu.dcache.SoftPFReq_misses::.cpu.data           87                       # number of SoftPFReq misses
system.cpu.dcache.SoftPFReq_misses::total           87                       # number of SoftPFReq misses
system.cpu.dcache.SoftPFReq_accesses::.cpu.data         3361                       # number of SoftPFReq accesses(hits+misses)
system.cpu.dcache.SoftPFReq_accesses::total         3361                       # number of SoftPFReq accesses(hits+misses)
system.cpu.dcache.SoftPFReq_miss_rate::.cpu.data     0.025885                       # miss rate for SoftPFReq accesses
system.cpu.dcache.SoftPFReq_miss_rate::total     0.025885                       # miss rate for SoftPFReq accesses
system.cpu.dcache.SoftPFReq_mshr_misses::.cpu.data           44                       # number of SoftPFReq MSHR misses
system.cpu.dcache.SoftPFReq_mshr_misses::total           44                       # number of SoftPFReq MSHR misses
system.cpu.dcache.SoftPFReq_mshr_miss_latency::.cpu.data      1095500                       # number of SoftPFReq MSHR miss cycles
system.cpu.dcache.SoftPFReq_mshr_miss_latency::total      1095500                       # number of SoftPFReq MSHR miss cycles
system.cpu.dcache.SoftPFReq_mshr_miss_rate::.cpu.data     0.013091                       # mshr miss rate for SoftPFReq accesses
system.cpu.dcache.SoftPFReq_mshr_miss_rate::total     0.013091                       # mshr miss rate for SoftPFReq accesses
system.cpu.dcache.SoftPFReq_avg_mshr_miss_latency::.cpu.data 24897.727273                       # average SoftPFReq mshr miss latency
system.cpu.dcache.SoftPFReq_avg_mshr_miss_latency::total 24897.727273                       # average SoftPFReq mshr miss latency
system.cpu.dcache.LoadLockedReq_hits::.cpu.data        89081                       # number of LoadLockedReq hits
system.cpu.dcache.LoadLockedReq_hits::total        89081                       # number of LoadLockedReq hits
system.cpu.dcache.LoadLockedReq_misses::.cpu.data            2                       # number of LoadLockedReq misses
system.cpu.dcache.LoadLockedReq_misses::total            2                       # number of LoadLockedReq misses
system.cpu.dcache.LoadLockedReq_miss_latency::.cpu.data        26000                       # number of LoadLockedReq miss cycles
system.cpu.dcache.LoadLockedReq_miss_latency::total        26000                       # number of LoadLockedReq miss cycles
system.cpu.dcache.LoadLockedReq_accesses::.cpu.data        89083                       # number of LoadLockedReq accesses(hits+misses)
system.cpu.dcache.LoadLockedReq_accesses::total        89083                       # number of LoadLockedReq accesses(hits+misses)
system.cpu.dcache.LoadLockedReq_miss_rate::.cpu.data     0.000022                       # miss rate for LoadLockedReq accesses
system.cpu.dcache.LoadLockedReq_miss_rate::total     0.000022                       # miss rate for LoadLockedReq accesses
system.cpu.dcache.LoadLockedReq_avg_miss_latency::.cpu.data        13000                       # average LoadLockedReq miss latency
system.cpu.dcache.LoadLockedReq_avg_miss_latency::total        13000                       # average LoadLockedReq miss latency
system.cpu.dcache.LoadLockedReq_mshr_misses::.cpu.data            2                       # number of LoadLockedReq MSHR misses
system.cpu.dcache.LoadLockedReq_mshr_misses::total            2                       # number of LoadLockedReq MSHR misses
system.cpu.dcache.LoadLockedReq_mshr_miss_latency::.cpu.data        24000                       # number of LoadLockedReq MSHR miss cycles
system.cpu.dcache.LoadLockedReq_mshr_miss_latency::total        24000                       # number of LoadLockedReq MSHR miss cycles
system.cpu.dcache.LoadLockedReq_mshr_miss_rate::.cpu.data     0.000022                       # mshr miss rate for LoadLockedReq accesses
system.cpu.dcache.LoadLockedReq_mshr_miss_rate::total     0.000022                       # mshr miss rate for LoadLockedReq accesses
system.cpu.dcache.LoadLockedReq_avg_mshr_miss_latency::.cpu.data        12000                       # average LoadLockedReq mshr miss latency
system.cpu.dcache.LoadLockedReq_avg_mshr_miss_latency::total        12000                       # average LoadLockedReq mshr miss latency
system.cpu.dcache.StoreCondReq_hits::.cpu.data        89082                       # number of StoreCondReq hits
system.cpu.dcache.StoreCondReq_hits::total        89082                       # number of StoreCondReq hits
system.cpu.dcache.StoreCondReq_accesses::.cpu.data        89082                       # number of StoreCondReq accesses(hits+misses)
system.cpu.dcache.StoreCondReq_accesses::total        89082                       # number of StoreCondReq accesses(hits+misses)
system.cpu.dcache.tags.pwrStateResidencyTicks::UNDEFINED  66766248000                       # Cumulative time (in ticks) in various power states
system.cpu.dcache.tags.tagsinuse           509.595858                       # Cycle average of tags in use
system.cpu.dcache.tags.total_refs            35001390                       # Total number of references to valid blocks.
system.cpu.dcache.tags.sampled_refs             63538                       # Sample count of references to valid blocks.
system.cpu.dcache.tags.avg_refs            550.873336                       # Average number of references to valid blocks.
system.cpu.dcache.tags.warmup_cycle            210500                       # Cycle when the warmup percentage was hit.
system.cpu.dcache.tags.occ_blocks::.cpu.data   509.595858                       # Average occupied blocks per requestor
system.cpu.dcache.tags.occ_percent::.cpu.data     0.995304                       # Average percentage of cache occupancy
system.cpu.dcache.tags.occ_percent::total     0.995304                       # Average percentage of cache occupancy
system.cpu.dcache.tags.occ_task_id_blocks::1024          512                       # Occupied blocks per task id
system.cpu.dcache.tags.age_task_id_blocks_1024::0            5                       # Occupied blocks per task id
system.cpu.dcache.tags.age_task_id_blocks_1024::1           35                       # Occupied blocks per task id
system.cpu.dcache.tags.age_task_id_blocks_1024::2          263                       # Occupied blocks per task id
system.cpu.dcache.tags.age_task_id_blocks_1024::3          209                       # Occupied blocks per task id
system.cpu.dcache.tags.occ_task_id_percent::1024            1                       # Percentage of cache occupancy per task id
system.cpu.dcache.tags.tag_accesses          35081583                       # Number of tag accesses
system.cpu.dcache.tags.data_accesses         35081583                       # Number of data accesses
system.cpu.itb.walker.pwrStateResidencyTicks::UNDEFINED  66766248000                       # Cumulative time (in ticks) in various power states
system.cpu.itb.stage2_mmu.stage2_tlb.walker.pwrStateResidencyTicks::UNDEFINED  66766248000                       # Cumulative time (in ticks) in various power states

---------- End Simulation Statistics   ----------
