
---------- Begin Simulation Statistics ----------
final_tick                                57780307500                       # Number of ticks from beginning of simulation (restored from checkpoints and never reset)
host_inst_rate                                 138101                       # Simulator instruction rate (inst/s)
host_mem_usage                                 691608                       # Number of bytes of host memory used
host_op_rate                                   151127                       # Simulator op (including micro ops) rate (op/s)
host_seconds                                   724.11                       # Real time elapsed on the host
host_tick_rate                               79795378                       # Simulator tick rate (ticks/s)
sim_freq                                 1000000000000                       # Frequency of simulated ticks
sim_insts                                   100000001                       # Number of instructions simulated
sim_ops                                     109431937                       # Number of ops (including micro ops) simulated
sim_seconds                                  0.057780                       # Number of seconds simulated
sim_ticks                                 57780307500                       # Number of ticks simulated
system.cpu.branchPred.BTBCorrect                    0                       # Number of correct BTB predictions (this stat may not work properly.
system.cpu.branchPred.BTBHitPct             87.596960                       # BTB Hit Percentage
system.cpu.branchPred.BTBHits                 8748071                       # Number of BTB hits
system.cpu.branchPred.BTBLookups              9986729                       # Number of BTB lookups
system.cpu.branchPred.RASInCorrect                348                       # Number of incorrect RAS predictions.
system.cpu.branchPred.condIncorrect            155024                       # Number of conditional branches incorrect
system.cpu.branchPred.condPredicted          16528232                       # Number of conditional branches predicted
system.cpu.branchPred.indirectHits             300026                       # Number of indirect target hits.
system.cpu.branchPred.indirectLookups          540255                       # Number of indirect predictor lookups.
system.cpu.branchPred.indirectMisses           240229                       # Number of indirect misses.
system.cpu.branchPred.lookups                20635663                       # Number of BP lookups
system.cpu.branchPred.usedRAS                 1050693                       # Number of times the RAS was used to get a target.
system.cpu.branchPredindirectMispredicted         1210                       # Number of mispredicted indirect branches.
system.cpu.committedInsts                   100000001                       # Number of instructions committed
system.cpu.committedOps                     109431937                       # Number of ops (including micro ops) committed
system.cpu.cpi                               1.155606                       # CPI: cycles per instruction
system.cpu.discardedOps                        732345                       # Number of ops (including micro ops) which were discarded before commit
system.cpu.dtb.accesses                             0                       # DTB accesses
system.cpu.dtb.align_faults                         0                       # Number of TLB faults due to alignment restrictions
system.cpu.dtb.domain_faults                        0                       # Number of TLB faults due to domain restrictions
system.cpu.dtb.flush_entries                        0                       # Number of entries that have been flushed from TLB
system.cpu.dtb.flush_tlb                            0                       # Number of times complete TLB was flushed
system.cpu.dtb.flush_tlb_asid                       0                       # Number of times TLB was flushed by ASID
system.cpu.dtb.flush_tlb_mva                        0                       # Number of times TLB was flushed by MVA
system.cpu.dtb.flush_tlb_mva_asid                   0                       # Number of times TLB was flushed by MVA & ASID
system.cpu.dtb.hits                                 0                       # DTB hits
system.cpu.dtb.inst_accesses                        0                       # ITB inst accesses
system.cpu.dtb.inst_hits                            0                       # ITB inst hits
system.cpu.dtb.inst_misses                          0                       # ITB inst misses
system.cpu.dtb.misses                               0                       # DTB misses
system.cpu.dtb.perms_faults                         0                       # Number of TLB faults due to permissions restrictions
system.cpu.dtb.prefetch_faults                      0                       # Number of TLB faults due to prefetch
system.cpu.dtb.read_accesses                        0                       # DTB read accesses
system.cpu.dtb.read_hits                            0                       # DTB read hits
system.cpu.dtb.read_misses                          0                       # DTB read misses
system.cpu.dtb.stage2_mmu.stage2_tlb.accesses            0                       # DTB accesses
system.cpu.dtb.stage2_mmu.stage2_tlb.align_faults            0                       # Number of TLB faults due to alignment restrictions
system.cpu.dtb.stage2_mmu.stage2_tlb.domain_faults            0                       # Number of TLB faults due to domain restrictions
system.cpu.dtb.stage2_mmu.stage2_tlb.flush_entries            0                       # Number of entries that have been flushed from TLB
system.cpu.dtb.stage2_mmu.stage2_tlb.flush_tlb            0                       # Number of times complete TLB was flushed
system.cpu.dtb.stage2_mmu.stage2_tlb.flush_tlb_asid            0                       # Number of times TLB was flushed by ASID
system.cpu.dtb.stage2_mmu.stage2_tlb.flush_tlb_mva            0                       # Number of times TLB was flushed by MVA
system.cpu.dtb.stage2_mmu.stage2_tlb.flush_tlb_mva_asid            0                       # Number of times TLB was flushed by MVA & ASID
system.cpu.dtb.stage2_mmu.stage2_tlb.hits            0                       # DTB hits
system.cpu.dtb.stage2_mmu.stage2_tlb.inst_accesses            0                       # ITB inst accesses
system.cpu.dtb.stage2_mmu.stage2_tlb.inst_hits            0                       # ITB inst hits
system.cpu.dtb.stage2_mmu.stage2_tlb.inst_misses            0                       # ITB inst misses
system.cpu.dtb.stage2_mmu.stage2_tlb.misses            0                       # DTB misses
system.cpu.dtb.stage2_mmu.stage2_tlb.perms_faults            0                       # Number of TLB faults due to permissions restrictions
system.cpu.dtb.stage2_mmu.stage2_tlb.prefetch_faults            0                       # Number of TLB faults due to prefetch
system.cpu.dtb.stage2_mmu.stage2_tlb.read_accesses            0                       # DTB read accesses
system.cpu.dtb.stage2_mmu.stage2_tlb.read_hits            0                       # DTB read hits
system.cpu.dtb.stage2_mmu.stage2_tlb.read_misses            0                       # DTB read misses
system.cpu.dtb.stage2_mmu.stage2_tlb.walker.walkRequestOrigin_Requested::Data            0                       # Table walker requests started/completed, data/inst
system.cpu.dtb.stage2_mmu.stage2_tlb.walker.walkRequestOrigin_Requested::Inst            0                       # Table walker requests started/completed, data/inst
system.cpu.dtb.stage2_mmu.stage2_tlb.walker.walkRequestOrigin_Requested::total            0                       # Table walker requests started/completed, data/inst
system.cpu.dtb.stage2_mmu.stage2_tlb.walker.walkRequestOrigin_Completed::Data            0                       # Table walker requests started/completed, data/inst
system.cpu.dtb.stage2_mmu.stage2_tlb.walker.walkRequestOrigin_Completed::Inst            0                       # Table walker requests started/completed, data/inst
system.cpu.dtb.stage2_mmu.stage2_tlb.walker.walkRequestOrigin_Completed::total            0                       # Table walker requests started/completed, data/inst
system.cpu.dtb.stage2_mmu.stage2_tlb.walker.walkRequestOrigin::total            0                       # Table walker requests started/completed, data/inst
system.cpu.dtb.stage2_mmu.stage2_tlb.walker.walks            0                       # Table walker walks requested
system.cpu.dtb.stage2_mmu.stage2_tlb.write_accesses            0                       # DTB write accesses
system.cpu.dtb.stage2_mmu.stage2_tlb.write_hits            0                       # DTB write hits
system.cpu.dtb.stage2_mmu.stage2_tlb.write_misses            0                       # DTB write misses
system.cpu.dtb.walker.walkRequestOrigin_Requested::Data            0                       # Table walker requests started/completed, data/inst
system.cpu.dtb.walker.walkRequestOrigin_Requested::Inst            0                       # Table walker requests started/completed, data/inst
system.cpu.dtb.walker.walkRequestOrigin_Requested::total            0                       # Table walker requests started/completed, data/inst
system.cpu.dtb.walker.walkRequestOrigin_Completed::Data            0                       # Table walker requests started/completed, data/inst
system.cpu.dtb.walker.walkRequestOrigin_Completed::Inst            0                       # Table walker requests started/completed, data/inst
system.cpu.dtb.walker.walkRequestOrigin_Completed::total            0                       # Table walker requests started/completed, data/inst
system.cpu.dtb.walker.walkRequestOrigin::total            0                       # Table walker requests started/completed, data/inst
system.cpu.dtb.walker.walks                         0                       # Table walker walks requested
system.cpu.dtb.write_accesses                       0                       # DTB write accesses
system.cpu.dtb.write_hits                           0                       # DTB write hits
system.cpu.dtb.write_misses                         0                       # DTB write misses
system.cpu.fetch2.amo_instructions                  0                       # Number of memory atomic instructions successfully decoded
system.cpu.fetch2.fp_instructions                   0                       # Number of floating point instructions successfully decoded
system.cpu.fetch2.int_instructions           49964594                       # Number of integer instructions successfully decoded
system.cpu.fetch2.load_instructions          17199294                       # Number of memory load instructions successfully decoded
system.cpu.fetch2.store_instructions         10036337                       # Number of memory store instructions successfully decoded
system.cpu.fetch2.vec_instructions                  0                       # Number of SIMD instructions successfully decoded
system.cpu.idleCycles                         4032893                       # Total number of cycles that the object has spent stopped
system.cpu.ipc                               0.865347                       # IPC: instructions per cycle
system.cpu.itb.accesses                             0                       # DTB accesses
system.cpu.itb.align_faults                         0                       # Number of TLB faults due to alignment restrictions
system.cpu.itb.domain_faults                        0                       # Number of TLB faults due to domain restrictions
system.cpu.itb.flush_entries                        0                       # Number of entries that have been flushed from TLB
system.cpu.itb.flush_tlb                            0                       # Number of times complete TLB was flushed
system.cpu.itb.flush_tlb_asid                       0                       # Number of times TLB was flushed by ASID
system.cpu.itb.flush_tlb_mva                        0                       # Number of times TLB was flushed by MVA
system.cpu.itb.flush_tlb_mva_asid                   0                       # Number of times TLB was flushed by MVA & ASID
system.cpu.itb.hits                                 0                       # DTB hits
system.cpu.itb.inst_accesses                        0                       # ITB inst accesses
system.cpu.itb.inst_hits                            0                       # ITB inst hits
system.cpu.itb.inst_misses                          0                       # ITB inst misses
system.cpu.itb.misses                               0                       # DTB misses
system.cpu.itb.perms_faults                         0                       # Number of TLB faults due to permissions restrictions
system.cpu.itb.prefetch_faults                      0                       # Number of TLB faults due to prefetch
system.cpu.itb.read_accesses                        0                       # DTB read accesses
system.cpu.itb.read_hits                            0                       # DTB read hits
system.cpu.itb.read_misses                          0                       # DTB read misses
system.cpu.itb.stage2_mmu.stage2_tlb.accesses            0                       # DTB accesses
system.cpu.itb.stage2_mmu.stage2_tlb.align_faults            0                       # Number of TLB faults due to alignment restrictions
system.cpu.itb.stage2_mmu.stage2_tlb.domain_faults            0                       # Number of TLB faults due to domain restrictions
system.cpu.itb.stage2_mmu.stage2_tlb.flush_entries            0                       # Number of entries that have been flushed from TLB
system.cpu.itb.stage2_mmu.stage2_tlb.flush_tlb            0                       # Number of times complete TLB was flushed
system.cpu.itb.stage2_mmu.stage2_tlb.flush_tlb_asid            0                       # Number of times TLB was flushed by ASID
system.cpu.itb.stage2_mmu.stage2_tlb.flush_tlb_mva            0                       # Number of times TLB was flushed by MVA
system.cpu.itb.stage2_mmu.stage2_tlb.flush_tlb_mva_asid            0                       # Number of times TLB was flushed by MVA & ASID
system.cpu.itb.stage2_mmu.stage2_tlb.hits            0                       # DTB hits
system.cpu.itb.stage2_mmu.stage2_tlb.inst_accesses            0                       # ITB inst accesses
system.cpu.itb.stage2_mmu.stage2_tlb.inst_hits            0                       # ITB inst hits
system.cpu.itb.stage2_mmu.stage2_tlb.inst_misses            0                       # ITB inst misses
system.cpu.itb.stage2_mmu.stage2_tlb.misses            0                       # DTB misses
system.cpu.itb.stage2_mmu.stage2_tlb.perms_faults            0                       # Number of TLB faults due to permissions restrictions
system.cpu.itb.stage2_mmu.stage2_tlb.prefetch_faults            0                       # Number of TLB faults due to prefetch
system.cpu.itb.stage2_mmu.stage2_tlb.read_accesses            0                       # DTB read accesses
system.cpu.itb.stage2_mmu.stage2_tlb.read_hits            0                       # DTB read hits
system.cpu.itb.stage2_mmu.stage2_tlb.read_misses            0                       # DTB read misses
system.cpu.itb.stage2_mmu.stage2_tlb.walker.walkRequestOrigin_Requested::Data            0                       # Table walker requests started/completed, data/inst
system.cpu.itb.stage2_mmu.stage2_tlb.walker.walkRequestOrigin_Requested::Inst            0                       # Table walker requests started/completed, data/inst
system.cpu.itb.stage2_mmu.stage2_tlb.walker.walkRequestOrigin_Requested::total            0                       # Table walker requests started/completed, data/inst
system.cpu.itb.stage2_mmu.stage2_tlb.walker.walkRequestOrigin_Completed::Data            0                       # Table walker requests started/completed, data/inst
system.cpu.itb.stage2_mmu.stage2_tlb.walker.walkRequestOrigin_Completed::Inst            0                       # Table walker requests started/completed, data/inst
system.cpu.itb.stage2_mmu.stage2_tlb.walker.walkRequestOrigin_Completed::total            0                       # Table walker requests started/completed, data/inst
system.cpu.itb.stage2_mmu.stage2_tlb.walker.walkRequestOrigin::total            0                       # Table walker requests started/completed, data/inst
system.cpu.itb.stage2_mmu.stage2_tlb.walker.walks            0                       # Table walker walks requested
system.cpu.itb.stage2_mmu.stage2_tlb.write_accesses            0                       # DTB write accesses
system.cpu.itb.stage2_mmu.stage2_tlb.write_hits            0                       # DTB write hits
system.cpu.itb.stage2_mmu.stage2_tlb.write_misses            0                       # DTB write misses
system.cpu.itb.walker.walkRequestOrigin_Requested::Data            0                       # Table walker requests started/completed, data/inst
system.cpu.itb.walker.walkRequestOrigin_Requested::Inst            0                       # Table walker requests started/completed, data/inst
system.cpu.itb.walker.walkRequestOrigin_Requested::total            0                       # Table walker requests started/completed, data/inst
system.cpu.itb.walker.walkRequestOrigin_Completed::Data            0                       # Table walker requests started/completed, data/inst
system.cpu.itb.walker.walkRequestOrigin_Completed::Inst            0                       # Table walker requests started/completed, data/inst
system.cpu.itb.walker.walkRequestOrigin_Completed::total            0                       # Table walker requests started/completed, data/inst
system.cpu.itb.walker.walkRequestOrigin::total            0                       # Table walker requests started/completed, data/inst
system.cpu.itb.walker.walks                         0                       # Table walker walks requested
system.cpu.itb.write_accesses                       0                       # DTB write accesses
system.cpu.itb.write_hits                           0                       # DTB write hits
system.cpu.itb.write_misses                         0                       # DTB write misses
system.cpu.numCycles                        115560615                       # number of cpu cycles simulated
system.cpu.numFetchSuspends                         0                       # Number of times Execute suspended instruction fetching
system.cpu.numWorkItemsCompleted                    0                       # number of work items this cpu completed
system.cpu.numWorkItemsStarted                      0                       # number of work items this cpu started
system.cpu.op_class_0::No_OpClass                   0      0.00%      0.00% # Class of committed instruction
system.cpu.op_class_0::IntAlu                72955303     66.67%     66.67% # Class of committed instruction
system.cpu.op_class_0::IntMult                 568365      0.52%     67.19% # Class of committed instruction
system.cpu.op_class_0::IntDiv                       0      0.00%     67.19% # Class of committed instruction
system.cpu.op_class_0::FloatAdd                     0      0.00%     67.19% # Class of committed instruction
system.cpu.op_class_0::FloatCmp                     0      0.00%     67.19% # Class of committed instruction
system.cpu.op_class_0::FloatCvt                     0      0.00%     67.19% # Class of committed instruction
system.cpu.op_class_0::FloatMult                    0      0.00%     67.19% # Class of committed instruction
system.cpu.op_class_0::FloatMultAcc                 0      0.00%     67.19% # Class of committed instruction
system.cpu.op_class_0::FloatDiv                     0      0.00%     67.19% # Class of committed instruction
system.cpu.op_class_0::FloatMisc                    0      0.00%     67.19% # Class of committed instruction
system.cpu.op_class_0::FloatSqrt                    0      0.00%     67.19% # Class of committed instruction
system.cpu.op_class_0::SimdAdd                 241252      0.22%     67.41% # Class of committed instruction
system.cpu.op_class_0::SimdAddAcc                   0      0.00%     67.41% # Class of committed instruction
system.cpu.op_class_0::SimdAlu                 154720      0.14%     67.55% # Class of committed instruction
system.cpu.op_class_0::SimdCmp                 120626      0.11%     67.66% # Class of committed instruction
system.cpu.op_class_0::SimdCvt                      0      0.00%     67.66% # Class of committed instruction
system.cpu.op_class_0::SimdMisc                 44544      0.04%     67.70% # Class of committed instruction
system.cpu.op_class_0::SimdMult                     0      0.00%     67.70% # Class of committed instruction
system.cpu.op_class_0::SimdMultAcc                  0      0.00%     67.70% # Class of committed instruction
system.cpu.op_class_0::SimdShift                    0      0.00%     67.70% # Class of committed instruction
system.cpu.op_class_0::SimdShiftAcc                 0      0.00%     67.70% # Class of committed instruction
system.cpu.op_class_0::SimdDiv                      0      0.00%     67.70% # Class of committed instruction
system.cpu.op_class_0::SimdSqrt                     0      0.00%     67.70% # Class of committed instruction
system.cpu.op_class_0::SimdFloatAdd                 0      0.00%     67.70% # Class of committed instruction
system.cpu.op_class_0::SimdFloatAlu                 0      0.00%     67.70% # Class of committed instruction
system.cpu.op_class_0::SimdFloatCmp                 0      0.00%     67.70% # Class of committed instruction
system.cpu.op_class_0::SimdFloatCvt                 0      0.00%     67.70% # Class of committed instruction
system.cpu.op_class_0::SimdFloatDiv                 0      0.00%     67.70% # Class of committed instruction
system.cpu.op_class_0::SimdFloatMisc           166465      0.15%     67.85% # Class of committed instruction
system.cpu.op_class_0::SimdFloatMult                0      0.00%     67.85% # Class of committed instruction
system.cpu.op_class_0::SimdFloatMultAcc             0      0.00%     67.85% # Class of committed instruction
system.cpu.op_class_0::SimdFloatSqrt                0      0.00%     67.85% # Class of committed instruction
system.cpu.op_class_0::SimdReduceAdd                0      0.00%     67.85% # Class of committed instruction
system.cpu.op_class_0::SimdReduceAlu                0      0.00%     67.85% # Class of committed instruction
system.cpu.op_class_0::SimdReduceCmp                0      0.00%     67.85% # Class of committed instruction
system.cpu.op_class_0::SimdFloatReduceAdd            0      0.00%     67.85% # Class of committed instruction
system.cpu.op_class_0::SimdFloatReduceCmp            0      0.00%     67.85% # Class of committed instruction
system.cpu.op_class_0::SimdAes                      0      0.00%     67.85% # Class of committed instruction
system.cpu.op_class_0::SimdAesMix                   0      0.00%     67.85% # Class of committed instruction
system.cpu.op_class_0::SimdSha1Hash                 0      0.00%     67.85% # Class of committed instruction
system.cpu.op_class_0::SimdSha1Hash2                0      0.00%     67.85% # Class of committed instruction
system.cpu.op_class_0::SimdSha256Hash               0      0.00%     67.85% # Class of committed instruction
system.cpu.op_class_0::SimdSha256Hash2              0      0.00%     67.85% # Class of committed instruction
system.cpu.op_class_0::SimdShaSigma2                0      0.00%     67.85% # Class of committed instruction
system.cpu.op_class_0::SimdShaSigma3                0      0.00%     67.85% # Class of committed instruction
system.cpu.op_class_0::SimdPredAlu                  0      0.00%     67.85% # Class of committed instruction
system.cpu.op_class_0::MemRead               20646465     18.87%     86.72% # Class of committed instruction
system.cpu.op_class_0::MemWrite              14534197     13.28%    100.00% # Class of committed instruction
system.cpu.op_class_0::FloatMemRead                 0      0.00%    100.00% # Class of committed instruction
system.cpu.op_class_0::FloatMemWrite                0      0.00%    100.00% # Class of committed instruction
system.cpu.op_class_0::IprAccess                    0      0.00%    100.00% # Class of committed instruction
system.cpu.op_class_0::InstPrefetch                 0      0.00%    100.00% # Class of committed instruction
system.cpu.op_class_0::total                109431937                       # Class of committed instruction
system.cpu.tickCycles                       111527722                       # Number of cycles that the object actually ticked
system.cpu.workload.numSyscalls                    86                       # Number of system calls
system.membus.snoop_filter.hit_multi_requests            0                       # Number of requests hitting in the snoop filter with multiple (>1) holders of the requested data.
system.membus.snoop_filter.hit_multi_snoops            0                       # Number of snoops hitting in the snoop filter with multiple (>1) holders of the requested data.
system.membus.snoop_filter.hit_single_requests         6587                       # Number of requests hitting in the snoop filter with a single holder of the requested data.
system.membus.snoop_filter.hit_single_snoops            0                       # Number of snoops hitting in the snoop filter with a single holder of the requested data.
system.membus.snoop_filter.tot_requests         46448                       # Total number of requests made to the snoop filter.
system.membus.snoop_filter.tot_snoops               0                       # Total number of snoops made to the snoop filter.
system.tol2bus.snoop_filter.hit_multi_requests           23                       # Number of requests hitting in the snoop filter with multiple (>1) holders of the requested data.
system.tol2bus.snoop_filter.hit_multi_snoops            2                       # Number of snoops hitting in the snoop filter with multiple (>1) holders of the requested data.
system.tol2bus.snoop_filter.hit_single_requests        54488                       # Number of requests hitting in the snoop filter with a single holder of the requested data.
system.tol2bus.snoop_filter.hit_single_snoops          508                       # Number of snoops hitting in the snoop filter with a single holder of the requested data.
system.tol2bus.snoop_filter.tot_requests       110488                       # Total number of requests made to the snoop filter.
system.tol2bus.snoop_filter.tot_snoops            510                       # Total number of snoops made to the snoop filter.
system.membus.pwrStateResidencyTicks::UNDEFINED  57780307500                       # Cumulative time (in ticks) in various power states
system.membus.trans_dist::ReadResp               1050                       # Transaction distribution
system.membus.trans_dist::WritebackDirty         6503                       # Transaction distribution
system.membus.trans_dist::CleanEvict               83                       # Transaction distribution
system.membus.trans_dist::ReadExReq             38812                       # Transaction distribution
system.membus.trans_dist::ReadExResp            38812                       # Transaction distribution
system.membus.trans_dist::ReadSharedReq          1050                       # Transaction distribution
system.membus.pkt_count_system.l2.mem_side::system.mem_ctrls.port        86310                       # Packet count per connected master and slave (bytes)
system.membus.pkt_count::total                  86310                       # Packet count per connected master and slave (bytes)
system.membus.pkt_size_system.l2.mem_side::system.mem_ctrls.port      2967360                       # Cumulative packet size per connected master and slave (bytes)
system.membus.pkt_size::total                 2967360                       # Cumulative packet size per connected master and slave (bytes)
system.membus.snoops                                0                       # Total snoops (count)
system.membus.snoopTraffic                          0                       # Total snoop traffic (bytes)
system.membus.snoop_fanout::samples             39862                       # Request fanout histogram
system.membus.snoop_fanout::mean                    0                       # Request fanout histogram
system.membus.snoop_fanout::stdev                   0                       # Request fanout histogram
system.membus.snoop_fanout::underflows              0      0.00%      0.00% # Request fanout histogram
system.membus.snoop_fanout::0                   39862    100.00%    100.00% # Request fanout histogram
system.membus.snoop_fanout::1                       0      0.00%    100.00% # Request fanout histogram
system.membus.snoop_fanout::overflows               0      0.00%    100.00% # Request fanout histogram
system.membus.snoop_fanout::min_value               0                       # Request fanout histogram
system.membus.snoop_fanout::max_value               0                       # Request fanout histogram
system.membus.snoop_fanout::total               39862                       # Request fanout histogram
system.membus.respLayer1.occupancy          212089000                       # Layer occupancy (ticks)
system.membus.respLayer1.utilization              0.4                       # Layer utilization (%)
system.membus.reqLayer0.occupancy            80000500                       # Layer occupancy (ticks)
system.membus.reqLayer0.utilization               0.1                       # Layer utilization (%)
system.tol2bus.pwrStateResidencyTicks::UNDEFINED  57780307500                       # Cumulative time (in ticks) in various power states
system.tol2bus.trans_dist::ReadResp             17069                       # Transaction distribution
system.tol2bus.trans_dist::WritebackDirty        57027                       # Transaction distribution
system.tol2bus.trans_dist::WritebackClean           32                       # Transaction distribution
system.tol2bus.trans_dist::CleanEvict            4519                       # Transaction distribution
system.tol2bus.trans_dist::ReadExReq            38935                       # Transaction distribution
system.tol2bus.trans_dist::ReadExResp           38935                       # Transaction distribution
system.tol2bus.trans_dist::ReadCleanReq           528                       # Transaction distribution
system.tol2bus.trans_dist::ReadSharedReq        16541                       # Transaction distribution
system.tol2bus.pkt_count_system.cpu.icache.mem_side::system.l2.cpu_side         1088                       # Packet count per connected master and slave (bytes)
system.tol2bus.pkt_count_system.cpu.dcache.mem_side::system.l2.cpu_side       165404                       # Packet count per connected master and slave (bytes)
system.tol2bus.pkt_count::total                166492                       # Packet count per connected master and slave (bytes)
system.tol2bus.pkt_size_system.cpu.icache.mem_side::system.l2.cpu_side        35840                       # Cumulative packet size per connected master and slave (bytes)
system.tol2bus.pkt_size_system.cpu.dcache.mem_side::system.l2.cpu_side      6784000                       # Cumulative packet size per connected master and slave (bytes)
system.tol2bus.pkt_size::total                6819840                       # Cumulative packet size per connected master and slave (bytes)
system.tol2bus.snoops                            7094                       # Total snoops (count)
system.tol2bus.snoopTraffic                    416192                       # Total snoop traffic (bytes)
system.tol2bus.snoop_fanout::samples            63098                       # Request fanout histogram
system.tol2bus.snoop_fanout::mean            0.008542                       # Request fanout histogram
system.tol2bus.snoop_fanout::stdev           0.092373                       # Request fanout histogram
system.tol2bus.snoop_fanout::underflows             0      0.00%      0.00% # Request fanout histogram
system.tol2bus.snoop_fanout::0                  62561     99.15%     99.15% # Request fanout histogram
system.tol2bus.snoop_fanout::1                    535      0.85%    100.00% # Request fanout histogram
system.tol2bus.snoop_fanout::2                      2      0.00%    100.00% # Request fanout histogram
system.tol2bus.snoop_fanout::overflows              0      0.00%    100.00% # Request fanout histogram
system.tol2bus.snoop_fanout::min_value              0                       # Request fanout histogram
system.tol2bus.snoop_fanout::max_value              2                       # Request fanout histogram
system.tol2bus.snoop_fanout::total              63098                       # Request fanout histogram
system.tol2bus.reqLayer0.occupancy          105800000                       # Layer occupancy (ticks)
system.tol2bus.reqLayer0.utilization              0.2                       # Layer utilization (%)
system.tol2bus.respLayer1.occupancy          83216495                       # Layer occupancy (ticks)
system.tol2bus.respLayer1.utilization             0.1                       # Layer utilization (%)
system.tol2bus.respLayer0.occupancy            792499                       # Layer occupancy (ticks)
system.tol2bus.respLayer0.utilization             0.0                       # Layer utilization (%)
system.voltage_domain.voltage                       1                       # Voltage in Volts
system.clk_domain.clock                          1000                       # Clock period in ticks
system.l2.pwrStateResidencyTicks::UNDEFINED  57780307500                       # Cumulative time (in ticks) in various power states
system.l2.demand_hits::.cpu.inst                   15                       # number of demand (read+write) hits
system.l2.demand_hits::.cpu.data                16121                       # number of demand (read+write) hits
system.l2.demand_hits::total                    16136                       # number of demand (read+write) hits
system.l2.overall_hits::.cpu.inst                  15                       # number of overall hits
system.l2.overall_hits::.cpu.data               16121                       # number of overall hits
system.l2.overall_hits::total                   16136                       # number of overall hits
system.l2.demand_misses::.cpu.inst                513                       # number of demand (read+write) misses
system.l2.demand_misses::.cpu.data              39355                       # number of demand (read+write) misses
system.l2.demand_misses::total                  39868                       # number of demand (read+write) misses
system.l2.overall_misses::.cpu.inst               513                       # number of overall misses
system.l2.overall_misses::.cpu.data             39355                       # number of overall misses
system.l2.overall_misses::total                 39868                       # number of overall misses
system.l2.demand_miss_latency::.cpu.inst     39266000                       # number of demand (read+write) miss cycles
system.l2.demand_miss_latency::.cpu.data   3135147000                       # number of demand (read+write) miss cycles
system.l2.demand_miss_latency::total       3174413000                       # number of demand (read+write) miss cycles
system.l2.overall_miss_latency::.cpu.inst     39266000                       # number of overall miss cycles
system.l2.overall_miss_latency::.cpu.data   3135147000                       # number of overall miss cycles
system.l2.overall_miss_latency::total      3174413000                       # number of overall miss cycles
system.l2.demand_accesses::.cpu.inst              528                       # number of demand (read+write) accesses
system.l2.demand_accesses::.cpu.data            55476                       # number of demand (read+write) accesses
system.l2.demand_accesses::total                56004                       # number of demand (read+write) accesses
system.l2.overall_accesses::.cpu.inst             528                       # number of overall (read+write) accesses
system.l2.overall_accesses::.cpu.data           55476                       # number of overall (read+write) accesses
system.l2.overall_accesses::total               56004                       # number of overall (read+write) accesses
system.l2.demand_miss_rate::.cpu.inst        0.971591                       # miss rate for demand accesses
system.l2.demand_miss_rate::.cpu.data        0.709406                       # miss rate for demand accesses
system.l2.demand_miss_rate::total            0.711878                       # miss rate for demand accesses
system.l2.overall_miss_rate::.cpu.inst       0.971591                       # miss rate for overall accesses
system.l2.overall_miss_rate::.cpu.data       0.709406                       # miss rate for overall accesses
system.l2.overall_miss_rate::total           0.711878                       # miss rate for overall accesses
system.l2.demand_avg_miss_latency::.cpu.inst 76541.910331                       # average overall miss latency
system.l2.demand_avg_miss_latency::.cpu.data 79663.244823                       # average overall miss latency
system.l2.demand_avg_miss_latency::total 79623.081168                       # average overall miss latency
system.l2.overall_avg_miss_latency::.cpu.inst 76541.910331                       # average overall miss latency
system.l2.overall_avg_miss_latency::.cpu.data 79663.244823                       # average overall miss latency
system.l2.overall_avg_miss_latency::total 79623.081168                       # average overall miss latency
system.l2.blocked_cycles::no_mshrs                  0                       # number of cycles access was blocked
system.l2.blocked_cycles::no_targets                0                       # number of cycles access was blocked
system.l2.blocked::no_mshrs                         0                       # number of cycles access was blocked
system.l2.blocked::no_targets                       0                       # number of cycles access was blocked
system.l2.avg_blocked_cycles::no_mshrs            nan                       # average number of cycles each access was blocked
system.l2.avg_blocked_cycles::no_targets          nan                       # average number of cycles each access was blocked
system.l2.writebacks::.writebacks                6503                       # number of writebacks
system.l2.writebacks::total                      6503                       # number of writebacks
system.l2.demand_mshr_hits::.cpu.inst               1                       # number of demand (read+write) MSHR hits
system.l2.demand_mshr_hits::.cpu.data               5                       # number of demand (read+write) MSHR hits
system.l2.demand_mshr_hits::total                   6                       # number of demand (read+write) MSHR hits
system.l2.overall_mshr_hits::.cpu.inst              1                       # number of overall MSHR hits
system.l2.overall_mshr_hits::.cpu.data              5                       # number of overall MSHR hits
system.l2.overall_mshr_hits::total                  6                       # number of overall MSHR hits
system.l2.demand_mshr_misses::.cpu.inst           512                       # number of demand (read+write) MSHR misses
system.l2.demand_mshr_misses::.cpu.data         39350                       # number of demand (read+write) MSHR misses
system.l2.demand_mshr_misses::total             39862                       # number of demand (read+write) MSHR misses
system.l2.overall_mshr_misses::.cpu.inst          512                       # number of overall MSHR misses
system.l2.overall_mshr_misses::.cpu.data        39350                       # number of overall MSHR misses
system.l2.overall_mshr_misses::total            39862                       # number of overall MSHR misses
system.l2.demand_mshr_miss_latency::.cpu.inst     34081500                       # number of demand (read+write) MSHR miss cycles
system.l2.demand_mshr_miss_latency::.cpu.data   2741306000                       # number of demand (read+write) MSHR miss cycles
system.l2.demand_mshr_miss_latency::total   2775387500                       # number of demand (read+write) MSHR miss cycles
system.l2.overall_mshr_miss_latency::.cpu.inst     34081500                       # number of overall MSHR miss cycles
system.l2.overall_mshr_miss_latency::.cpu.data   2741306000                       # number of overall MSHR miss cycles
system.l2.overall_mshr_miss_latency::total   2775387500                       # number of overall MSHR miss cycles
system.l2.demand_mshr_miss_rate::.cpu.inst     0.969697                       # mshr miss rate for demand accesses
system.l2.demand_mshr_miss_rate::.cpu.data     0.709316                       # mshr miss rate for demand accesses
system.l2.demand_mshr_miss_rate::total       0.711771                       # mshr miss rate for demand accesses
system.l2.overall_mshr_miss_rate::.cpu.inst     0.969697                       # mshr miss rate for overall accesses
system.l2.overall_mshr_miss_rate::.cpu.data     0.709316                       # mshr miss rate for overall accesses
system.l2.overall_mshr_miss_rate::total      0.711771                       # mshr miss rate for overall accesses
system.l2.demand_avg_mshr_miss_latency::.cpu.inst 66565.429688                       # average overall mshr miss latency
system.l2.demand_avg_mshr_miss_latency::.cpu.data 69664.701398                       # average overall mshr miss latency
system.l2.demand_avg_mshr_miss_latency::total 69624.893382                       # average overall mshr miss latency
system.l2.overall_avg_mshr_miss_latency::.cpu.inst 66565.429688                       # average overall mshr miss latency
system.l2.overall_avg_mshr_miss_latency::.cpu.data 69664.701398                       # average overall mshr miss latency
system.l2.overall_avg_mshr_miss_latency::total 69624.893382                       # average overall mshr miss latency
system.l2.replacements                           7094                       # number of replacements
system.l2.WritebackDirty_hits::.writebacks        50524                       # number of WritebackDirty hits
system.l2.WritebackDirty_hits::total            50524                       # number of WritebackDirty hits
system.l2.WritebackDirty_accesses::.writebacks        50524                       # number of WritebackDirty accesses(hits+misses)
system.l2.WritebackDirty_accesses::total        50524                       # number of WritebackDirty accesses(hits+misses)
system.l2.WritebackClean_hits::.writebacks           30                       # number of WritebackClean hits
system.l2.WritebackClean_hits::total               30                       # number of WritebackClean hits
system.l2.WritebackClean_accesses::.writebacks           30                       # number of WritebackClean accesses(hits+misses)
system.l2.WritebackClean_accesses::total           30                       # number of WritebackClean accesses(hits+misses)
system.l2.CleanEvict_mshr_misses::.writebacks            2                       # number of CleanEvict MSHR misses
system.l2.CleanEvict_mshr_misses::total             2                       # number of CleanEvict MSHR misses
system.l2.CleanEvict_mshr_miss_rate::.writebacks          inf                       # mshr miss rate for CleanEvict accesses
system.l2.CleanEvict_mshr_miss_rate::total          inf                       # mshr miss rate for CleanEvict accesses
system.l2.ReadExReq_hits::.cpu.data               123                       # number of ReadExReq hits
system.l2.ReadExReq_hits::total                   123                       # number of ReadExReq hits
system.l2.ReadExReq_misses::.cpu.data           38812                       # number of ReadExReq misses
system.l2.ReadExReq_misses::total               38812                       # number of ReadExReq misses
system.l2.ReadExReq_miss_latency::.cpu.data   3086073500                       # number of ReadExReq miss cycles
system.l2.ReadExReq_miss_latency::total    3086073500                       # number of ReadExReq miss cycles
system.l2.ReadExReq_accesses::.cpu.data         38935                       # number of ReadExReq accesses(hits+misses)
system.l2.ReadExReq_accesses::total             38935                       # number of ReadExReq accesses(hits+misses)
system.l2.ReadExReq_miss_rate::.cpu.data     0.996841                       # miss rate for ReadExReq accesses
system.l2.ReadExReq_miss_rate::total         0.996841                       # miss rate for ReadExReq accesses
system.l2.ReadExReq_avg_miss_latency::.cpu.data 79513.385036                       # average ReadExReq miss latency
system.l2.ReadExReq_avg_miss_latency::total 79513.385036                       # average ReadExReq miss latency
system.l2.ReadExReq_mshr_misses::.cpu.data        38812                       # number of ReadExReq MSHR misses
system.l2.ReadExReq_mshr_misses::total          38812                       # number of ReadExReq MSHR misses
system.l2.ReadExReq_mshr_miss_latency::.cpu.data   2697953500                       # number of ReadExReq MSHR miss cycles
system.l2.ReadExReq_mshr_miss_latency::total   2697953500                       # number of ReadExReq MSHR miss cycles
system.l2.ReadExReq_mshr_miss_rate::.cpu.data     0.996841                       # mshr miss rate for ReadExReq accesses
system.l2.ReadExReq_mshr_miss_rate::total     0.996841                       # mshr miss rate for ReadExReq accesses
system.l2.ReadExReq_avg_mshr_miss_latency::.cpu.data 69513.385036                       # average ReadExReq mshr miss latency
system.l2.ReadExReq_avg_mshr_miss_latency::total 69513.385036                       # average ReadExReq mshr miss latency
system.l2.ReadCleanReq_hits::.cpu.inst             15                       # number of ReadCleanReq hits
system.l2.ReadCleanReq_hits::total                 15                       # number of ReadCleanReq hits
system.l2.ReadCleanReq_misses::.cpu.inst          513                       # number of ReadCleanReq misses
system.l2.ReadCleanReq_misses::total              513                       # number of ReadCleanReq misses
system.l2.ReadCleanReq_miss_latency::.cpu.inst     39266000                       # number of ReadCleanReq miss cycles
system.l2.ReadCleanReq_miss_latency::total     39266000                       # number of ReadCleanReq miss cycles
system.l2.ReadCleanReq_accesses::.cpu.inst          528                       # number of ReadCleanReq accesses(hits+misses)
system.l2.ReadCleanReq_accesses::total            528                       # number of ReadCleanReq accesses(hits+misses)
system.l2.ReadCleanReq_miss_rate::.cpu.inst     0.971591                       # miss rate for ReadCleanReq accesses
system.l2.ReadCleanReq_miss_rate::total      0.971591                       # miss rate for ReadCleanReq accesses
system.l2.ReadCleanReq_avg_miss_latency::.cpu.inst 76541.910331                       # average ReadCleanReq miss latency
system.l2.ReadCleanReq_avg_miss_latency::total 76541.910331                       # average ReadCleanReq miss latency
system.l2.ReadCleanReq_mshr_hits::.cpu.inst            1                       # number of ReadCleanReq MSHR hits
system.l2.ReadCleanReq_mshr_hits::total             1                       # number of ReadCleanReq MSHR hits
system.l2.ReadCleanReq_mshr_misses::.cpu.inst          512                       # number of ReadCleanReq MSHR misses
system.l2.ReadCleanReq_mshr_misses::total          512                       # number of ReadCleanReq MSHR misses
system.l2.ReadCleanReq_mshr_miss_latency::.cpu.inst     34081500                       # number of ReadCleanReq MSHR miss cycles
system.l2.ReadCleanReq_mshr_miss_latency::total     34081500                       # number of ReadCleanReq MSHR miss cycles
system.l2.ReadCleanReq_mshr_miss_rate::.cpu.inst     0.969697                       # mshr miss rate for ReadCleanReq accesses
system.l2.ReadCleanReq_mshr_miss_rate::total     0.969697                       # mshr miss rate for ReadCleanReq accesses
system.l2.ReadCleanReq_avg_mshr_miss_latency::.cpu.inst 66565.429688                       # average ReadCleanReq mshr miss latency
system.l2.ReadCleanReq_avg_mshr_miss_latency::total 66565.429688                       # average ReadCleanReq mshr miss latency
system.l2.ReadSharedReq_hits::.cpu.data         15998                       # number of ReadSharedReq hits
system.l2.ReadSharedReq_hits::total             15998                       # number of ReadSharedReq hits
system.l2.ReadSharedReq_misses::.cpu.data          543                       # number of ReadSharedReq misses
system.l2.ReadSharedReq_misses::total             543                       # number of ReadSharedReq misses
system.l2.ReadSharedReq_miss_latency::.cpu.data     49073500                       # number of ReadSharedReq miss cycles
system.l2.ReadSharedReq_miss_latency::total     49073500                       # number of ReadSharedReq miss cycles
system.l2.ReadSharedReq_accesses::.cpu.data        16541                       # number of ReadSharedReq accesses(hits+misses)
system.l2.ReadSharedReq_accesses::total         16541                       # number of ReadSharedReq accesses(hits+misses)
system.l2.ReadSharedReq_miss_rate::.cpu.data     0.032828                       # miss rate for ReadSharedReq accesses
system.l2.ReadSharedReq_miss_rate::total     0.032828                       # miss rate for ReadSharedReq accesses
system.l2.ReadSharedReq_avg_miss_latency::.cpu.data 90374.769797                       # average ReadSharedReq miss latency
system.l2.ReadSharedReq_avg_miss_latency::total 90374.769797                       # average ReadSharedReq miss latency
system.l2.ReadSharedReq_mshr_hits::.cpu.data            5                       # number of ReadSharedReq MSHR hits
system.l2.ReadSharedReq_mshr_hits::total            5                       # number of ReadSharedReq MSHR hits
system.l2.ReadSharedReq_mshr_misses::.cpu.data          538                       # number of ReadSharedReq MSHR misses
system.l2.ReadSharedReq_mshr_misses::total          538                       # number of ReadSharedReq MSHR misses
system.l2.ReadSharedReq_mshr_miss_latency::.cpu.data     43352500                       # number of ReadSharedReq MSHR miss cycles
system.l2.ReadSharedReq_mshr_miss_latency::total     43352500                       # number of ReadSharedReq MSHR miss cycles
system.l2.ReadSharedReq_mshr_miss_rate::.cpu.data     0.032525                       # mshr miss rate for ReadSharedReq accesses
system.l2.ReadSharedReq_mshr_miss_rate::total     0.032525                       # mshr miss rate for ReadSharedReq accesses
system.l2.ReadSharedReq_avg_mshr_miss_latency::.cpu.data 80580.855019                       # average ReadSharedReq mshr miss latency
system.l2.ReadSharedReq_avg_mshr_miss_latency::total 80580.855019                       # average ReadSharedReq mshr miss latency
system.l2.tags.pwrStateResidencyTicks::UNDEFINED  57780307500                       # Cumulative time (in ticks) in various power states
system.l2.tags.tagsinuse                 26016.071092                       # Cycle average of tags in use
system.l2.tags.total_refs                      110457                       # Total number of references to valid blocks.
system.l2.tags.sampled_refs                     39862                       # Sample count of references to valid blocks.
system.l2.tags.avg_refs                      2.770985                       # Average number of references to valid blocks.
system.l2.tags.warmup_cycle                     77000                       # Cycle when the warmup percentage was hit.
system.l2.tags.occ_blocks::.cpu.inst       301.938288                       # Average occupied blocks per requestor
system.l2.tags.occ_blocks::.cpu.data     25714.132804                       # Average occupied blocks per requestor
system.l2.tags.occ_percent::.cpu.inst        0.009214                       # Average percentage of cache occupancy
system.l2.tags.occ_percent::.cpu.data        0.784733                       # Average percentage of cache occupancy
system.l2.tags.occ_percent::total            0.793947                       # Average percentage of cache occupancy
system.l2.tags.occ_task_id_blocks::1024         32768                       # Occupied blocks per task id
system.l2.tags.age_task_id_blocks_1024::0            4                       # Occupied blocks per task id
system.l2.tags.age_task_id_blocks_1024::1           34                       # Occupied blocks per task id
system.l2.tags.age_task_id_blocks_1024::2          401                       # Occupied blocks per task id
system.l2.tags.age_task_id_blocks_1024::3         3673                       # Occupied blocks per task id
system.l2.tags.age_task_id_blocks_1024::4        28656                       # Occupied blocks per task id
system.l2.tags.occ_task_id_percent::1024            1                       # Percentage of cache occupancy per task id
system.l2.tags.tag_accesses                    923582                       # Number of tag accesses
system.l2.tags.data_accesses                   923582                       # Number of data accesses
system.cpu_voltage_domain.voltage                   1                       # Voltage in Volts
system.mem_ctrls.pwrStateResidencyTicks::UNDEFINED  57780307500                       # Cumulative time (in ticks) in various power states
system.mem_ctrls.bytes_read::.cpu.inst          32768                       # Number of bytes read from this memory
system.mem_ctrls.bytes_read::.cpu.data        2518400                       # Number of bytes read from this memory
system.mem_ctrls.bytes_read::total            2551168                       # Number of bytes read from this memory
system.mem_ctrls.bytes_inst_read::.cpu.inst        32768                       # Number of instructions bytes read from this memory
system.mem_ctrls.bytes_inst_read::total         32768                       # Number of instructions bytes read from this memory
system.mem_ctrls.bytes_written::.writebacks       416192                       # Number of bytes written to this memory
system.mem_ctrls.bytes_written::total          416192                       # Number of bytes written to this memory
system.mem_ctrls.num_reads::.cpu.inst             512                       # Number of read requests responded to by this memory
system.mem_ctrls.num_reads::.cpu.data           39350                       # Number of read requests responded to by this memory
system.mem_ctrls.num_reads::total               39862                       # Number of read requests responded to by this memory
system.mem_ctrls.num_writes::.writebacks         6503                       # Number of write requests responded to by this memory
system.mem_ctrls.num_writes::total               6503                       # Number of write requests responded to by this memory
system.mem_ctrls.bw_read::.cpu.inst            567114                       # Total read bandwidth from this memory (bytes/s)
system.mem_ctrls.bw_read::.cpu.data          43585784                       # Total read bandwidth from this memory (bytes/s)
system.mem_ctrls.bw_read::total              44152898                       # Total read bandwidth from this memory (bytes/s)
system.mem_ctrls.bw_inst_read::.cpu.inst       567114                       # Instruction read bandwidth from this memory (bytes/s)
system.mem_ctrls.bw_inst_read::total           567114                       # Instruction read bandwidth from this memory (bytes/s)
system.mem_ctrls.bw_write::.writebacks        7203008                       # Write bandwidth from this memory (bytes/s)
system.mem_ctrls.bw_write::total              7203008                       # Write bandwidth from this memory (bytes/s)
system.mem_ctrls.bw_total::.writebacks        7203008                       # Total bandwidth to/from this memory (bytes/s)
system.mem_ctrls.bw_total::.cpu.inst           567114                       # Total bandwidth to/from this memory (bytes/s)
system.mem_ctrls.bw_total::.cpu.data         43585784                       # Total bandwidth to/from this memory (bytes/s)
system.mem_ctrls.bw_total::total             51355905                       # Total bandwidth to/from this memory (bytes/s)
system.mem_ctrls.avgPriority_.writebacks::samples      6503.00                       # Average QoS priority value for accepted requests
system.mem_ctrls.avgPriority_.cpu.inst::samples       512.00                       # Average QoS priority value for accepted requests
system.mem_ctrls.avgPriority_.cpu.data::samples     39347.00                       # Average QoS priority value for accepted requests
system.mem_ctrls.priorityMinLatency      0.000000018750                       # per QoS priority minimum request to response latency (s)
system.mem_ctrls.priorityMaxLatency      0.017763688500                       # per QoS priority maximum request to response latency (s)
system.mem_ctrls.numReadWriteTurnArounds          360                       # Number of turnarounds from READ to WRITE
system.mem_ctrls.numWriteReadTurnArounds          360                       # Number of turnarounds from WRITE to READ
system.mem_ctrls.numStayReadState              101031                       # Number of times bus staying in READ state
system.mem_ctrls.numStayWriteState               6133                       # Number of times bus staying in WRITE state
system.mem_ctrls.readReqs                       39862                       # Number of read requests accepted
system.mem_ctrls.writeReqs                       6503                       # Number of write requests accepted
system.mem_ctrls.readBursts                     39862                       # Number of DRAM read bursts, including those serviced by the write queue
system.mem_ctrls.writeBursts                     6503                       # Number of DRAM write bursts, including those merged in the write queue
system.mem_ctrls.servicedByWrQ                      3                       # Number of DRAM read bursts serviced by the write queue
system.mem_ctrls.mergedWrBursts                     0                       # Number of DRAM write bursts merged with an existing one
system.mem_ctrls.neitherReadNorWriteReqs            0                       # Number of requests that are neither read nor write
system.mem_ctrls.perBankRdBursts::0              2476                       # Per bank write bursts
system.mem_ctrls.perBankRdBursts::1              2365                       # Per bank write bursts
system.mem_ctrls.perBankRdBursts::2              2347                       # Per bank write bursts
system.mem_ctrls.perBankRdBursts::3              2611                       # Per bank write bursts
system.mem_ctrls.perBankRdBursts::4              2682                       # Per bank write bursts
system.mem_ctrls.perBankRdBursts::5              2456                       # Per bank write bursts
system.mem_ctrls.perBankRdBursts::6              2446                       # Per bank write bursts
system.mem_ctrls.perBankRdBursts::7              2471                       # Per bank write bursts
system.mem_ctrls.perBankRdBursts::8              2473                       # Per bank write bursts
system.mem_ctrls.perBankRdBursts::9              2505                       # Per bank write bursts
system.mem_ctrls.perBankRdBursts::10             2488                       # Per bank write bursts
system.mem_ctrls.perBankRdBursts::11             2512                       # Per bank write bursts
system.mem_ctrls.perBankRdBursts::12             2509                       # Per bank write bursts
system.mem_ctrls.perBankRdBursts::13             2470                       # Per bank write bursts
system.mem_ctrls.perBankRdBursts::14             2553                       # Per bank write bursts
system.mem_ctrls.perBankRdBursts::15             2495                       # Per bank write bursts
system.mem_ctrls.perBankWrBursts::0               358                       # Per bank write bursts
system.mem_ctrls.perBankWrBursts::1               287                       # Per bank write bursts
system.mem_ctrls.perBankWrBursts::2               285                       # Per bank write bursts
system.mem_ctrls.perBankWrBursts::3               480                       # Per bank write bursts
system.mem_ctrls.perBankWrBursts::4               610                       # Per bank write bursts
system.mem_ctrls.perBankWrBursts::5               407                       # Per bank write bursts
system.mem_ctrls.perBankWrBursts::6               398                       # Per bank write bursts
system.mem_ctrls.perBankWrBursts::7               395                       # Per bank write bursts
system.mem_ctrls.perBankWrBursts::8               402                       # Per bank write bursts
system.mem_ctrls.perBankWrBursts::9               403                       # Per bank write bursts
system.mem_ctrls.perBankWrBursts::10              404                       # Per bank write bursts
system.mem_ctrls.perBankWrBursts::11              400                       # Per bank write bursts
system.mem_ctrls.perBankWrBursts::12              412                       # Per bank write bursts
system.mem_ctrls.perBankWrBursts::13              401                       # Per bank write bursts
system.mem_ctrls.perBankWrBursts::14              430                       # Per bank write bursts
system.mem_ctrls.perBankWrBursts::15              413                       # Per bank write bursts
system.mem_ctrls.avgRdQLen                       1.00                       # Average read queue length when enqueuing
system.mem_ctrls.avgWrQLen                      12.07                       # Average write queue length when enqueuing
system.mem_ctrls.totQLat                    393306500                       # Total ticks spent queuing
system.mem_ctrls.totBusLat                  199295000                       # Total ticks spent in databus transfers
system.mem_ctrls.totMemAccLat              1140662750                       # Total ticks spent from burst creation until serviced by the DRAM
system.mem_ctrls.avgQLat                      9867.45                       # Average queueing delay per DRAM burst
system.mem_ctrls.avgBusLat                    5000.00                       # Average bus latency per DRAM burst
system.mem_ctrls.avgMemAccLat                28617.45                       # Average memory access latency per DRAM burst
system.mem_ctrls.numRdRetry                         0                       # Number of times read queue was full causing retry
system.mem_ctrls.numWrRetry                         0                       # Number of times write queue was full causing retry
system.mem_ctrls.readRowHits                    28541                       # Number of row buffer hits during reads
system.mem_ctrls.writeRowHits                    5507                       # Number of row buffer hits during writes
system.mem_ctrls.readRowHitRate                 71.60                       # Row buffer hit rate for reads
system.mem_ctrls.writeRowHitRate                84.68                       # Row buffer hit rate for writes
system.mem_ctrls.readPktSize::0                     0                       # Read request sizes (log2)
system.mem_ctrls.readPktSize::1                     0                       # Read request sizes (log2)
system.mem_ctrls.readPktSize::2                     0                       # Read request sizes (log2)
system.mem_ctrls.readPktSize::3                     0                       # Read request sizes (log2)
system.mem_ctrls.readPktSize::4                     0                       # Read request sizes (log2)
system.mem_ctrls.readPktSize::5                     0                       # Read request sizes (log2)
system.mem_ctrls.readPktSize::6                 39862                       # Read request sizes (log2)
system.mem_ctrls.writePktSize::0                    0                       # Write request sizes (log2)
system.mem_ctrls.writePktSize::1                    0                       # Write request sizes (log2)
system.mem_ctrls.writePktSize::2                    0                       # Write request sizes (log2)
system.mem_ctrls.writePktSize::3                    0                       # Write request sizes (log2)
system.mem_ctrls.writePktSize::4                    0                       # Write request sizes (log2)
system.mem_ctrls.writePktSize::5                    0                       # Write request sizes (log2)
system.mem_ctrls.writePktSize::6                 6503                       # Write request sizes (log2)
system.mem_ctrls.rdQLenPdf::0                   39664                       # What read queue length does an incoming req see
system.mem_ctrls.rdQLenPdf::1                     189                       # What read queue length does an incoming req see
system.mem_ctrls.rdQLenPdf::2                       6                       # What read queue length does an incoming req see
system.mem_ctrls.rdQLenPdf::3                       0                       # What read queue length does an incoming req see
system.mem_ctrls.rdQLenPdf::4                       0                       # What read queue length does an incoming req see
system.mem_ctrls.rdQLenPdf::5                       0                       # What read queue length does an incoming req see
system.mem_ctrls.rdQLenPdf::6                       0                       # What read queue length does an incoming req see
system.mem_ctrls.rdQLenPdf::7                       0                       # What read queue length does an incoming req see
system.mem_ctrls.rdQLenPdf::8                       0                       # What read queue length does an incoming req see
system.mem_ctrls.rdQLenPdf::9                       0                       # What read queue length does an incoming req see
system.mem_ctrls.rdQLenPdf::10                      0                       # What read queue length does an incoming req see
system.mem_ctrls.rdQLenPdf::11                      0                       # What read queue length does an incoming req see
system.mem_ctrls.rdQLenPdf::12                      0                       # What read queue length does an incoming req see
system.mem_ctrls.rdQLenPdf::13                      0                       # What read queue length does an incoming req see
system.mem_ctrls.rdQLenPdf::14                      0                       # What read queue length does an incoming req see
system.mem_ctrls.rdQLenPdf::15                      0                       # What read queue length does an incoming req see
system.mem_ctrls.rdQLenPdf::16                      0                       # What read queue length does an incoming req see
system.mem_ctrls.rdQLenPdf::17                      0                       # What read queue length does an incoming req see
system.mem_ctrls.rdQLenPdf::18                      0                       # What read queue length does an incoming req see
system.mem_ctrls.rdQLenPdf::19                      0                       # What read queue length does an incoming req see
system.mem_ctrls.rdQLenPdf::20                      0                       # What read queue length does an incoming req see
system.mem_ctrls.rdQLenPdf::21                      0                       # What read queue length does an incoming req see
system.mem_ctrls.rdQLenPdf::22                      0                       # What read queue length does an incoming req see
system.mem_ctrls.rdQLenPdf::23                      0                       # What read queue length does an incoming req see
system.mem_ctrls.rdQLenPdf::24                      0                       # What read queue length does an incoming req see
system.mem_ctrls.rdQLenPdf::25                      0                       # What read queue length does an incoming req see
system.mem_ctrls.rdQLenPdf::26                      0                       # What read queue length does an incoming req see
system.mem_ctrls.rdQLenPdf::27                      0                       # What read queue length does an incoming req see
system.mem_ctrls.rdQLenPdf::28                      0                       # What read queue length does an incoming req see
system.mem_ctrls.rdQLenPdf::29                      0                       # What read queue length does an incoming req see
system.mem_ctrls.rdQLenPdf::30                      0                       # What read queue length does an incoming req see
system.mem_ctrls.rdQLenPdf::31                      0                       # What read queue length does an incoming req see
system.mem_ctrls.wrQLenPdf::0                       1                       # What write queue length does an incoming req see
system.mem_ctrls.wrQLenPdf::1                       1                       # What write queue length does an incoming req see
system.mem_ctrls.wrQLenPdf::2                       1                       # What write queue length does an incoming req see
system.mem_ctrls.wrQLenPdf::3                       1                       # What write queue length does an incoming req see
system.mem_ctrls.wrQLenPdf::4                       1                       # What write queue length does an incoming req see
system.mem_ctrls.wrQLenPdf::5                       1                       # What write queue length does an incoming req see
system.mem_ctrls.wrQLenPdf::6                       1                       # What write queue length does an incoming req see
system.mem_ctrls.wrQLenPdf::7                       1                       # What write queue length does an incoming req see
system.mem_ctrls.wrQLenPdf::8                       1                       # What write queue length does an incoming req see
system.mem_ctrls.wrQLenPdf::9                       1                       # What write queue length does an incoming req see
system.mem_ctrls.wrQLenPdf::10                      1                       # What write queue length does an incoming req see
system.mem_ctrls.wrQLenPdf::11                      1                       # What write queue length does an incoming req see
system.mem_ctrls.wrQLenPdf::12                      1                       # What write queue length does an incoming req see
system.mem_ctrls.wrQLenPdf::13                      1                       # What write queue length does an incoming req see
system.mem_ctrls.wrQLenPdf::14                      1                       # What write queue length does an incoming req see
system.mem_ctrls.wrQLenPdf::15                    359                       # What write queue length does an incoming req see
system.mem_ctrls.wrQLenPdf::16                    359                       # What write queue length does an incoming req see
system.mem_ctrls.wrQLenPdf::17                    361                       # What write queue length does an incoming req see
system.mem_ctrls.wrQLenPdf::18                    360                       # What write queue length does an incoming req see
system.mem_ctrls.wrQLenPdf::19                    360                       # What write queue length does an incoming req see
system.mem_ctrls.wrQLenPdf::20                    360                       # What write queue length does an incoming req see
system.mem_ctrls.wrQLenPdf::21                    360                       # What write queue length does an incoming req see
system.mem_ctrls.wrQLenPdf::22                    361                       # What write queue length does an incoming req see
system.mem_ctrls.wrQLenPdf::23                    361                       # What write queue length does an incoming req see
system.mem_ctrls.wrQLenPdf::24                    360                       # What write queue length does an incoming req see
system.mem_ctrls.wrQLenPdf::25                    362                       # What write queue length does an incoming req see
system.mem_ctrls.wrQLenPdf::26                    362                       # What write queue length does an incoming req see
system.mem_ctrls.wrQLenPdf::27                    363                       # What write queue length does an incoming req see
system.mem_ctrls.wrQLenPdf::28                    360                       # What write queue length does an incoming req see
system.mem_ctrls.wrQLenPdf::29                    360                       # What write queue length does an incoming req see
system.mem_ctrls.wrQLenPdf::30                    360                       # What write queue length does an incoming req see
system.mem_ctrls.wrQLenPdf::31                    360                       # What write queue length does an incoming req see
system.mem_ctrls.wrQLenPdf::32                    360                       # What write queue length does an incoming req see
system.mem_ctrls.wrQLenPdf::33                      0                       # What write queue length does an incoming req see
system.mem_ctrls.wrQLenPdf::34                      0                       # What write queue length does an incoming req see
system.mem_ctrls.wrQLenPdf::35                      0                       # What write queue length does an incoming req see
system.mem_ctrls.wrQLenPdf::36                      0                       # What write queue length does an incoming req see
system.mem_ctrls.wrQLenPdf::37                      0                       # What write queue length does an incoming req see
system.mem_ctrls.wrQLenPdf::38                      0                       # What write queue length does an incoming req see
system.mem_ctrls.wrQLenPdf::39                      0                       # What write queue length does an incoming req see
system.mem_ctrls.wrQLenPdf::40                      0                       # What write queue length does an incoming req see
system.mem_ctrls.wrQLenPdf::41                      0                       # What write queue length does an incoming req see
system.mem_ctrls.wrQLenPdf::42                      0                       # What write queue length does an incoming req see
system.mem_ctrls.wrQLenPdf::43                      0                       # What write queue length does an incoming req see
system.mem_ctrls.wrQLenPdf::44                      0                       # What write queue length does an incoming req see
system.mem_ctrls.wrQLenPdf::45                      0                       # What write queue length does an incoming req see
system.mem_ctrls.wrQLenPdf::46                      0                       # What write queue length does an incoming req see
system.mem_ctrls.wrQLenPdf::47                      0                       # What write queue length does an incoming req see
system.mem_ctrls.wrQLenPdf::48                      0                       # What write queue length does an incoming req see
system.mem_ctrls.wrQLenPdf::49                      0                       # What write queue length does an incoming req see
system.mem_ctrls.wrQLenPdf::50                      0                       # What write queue length does an incoming req see
system.mem_ctrls.wrQLenPdf::51                      0                       # What write queue length does an incoming req see
system.mem_ctrls.wrQLenPdf::52                      0                       # What write queue length does an incoming req see
system.mem_ctrls.wrQLenPdf::53                      0                       # What write queue length does an incoming req see
system.mem_ctrls.wrQLenPdf::54                      0                       # What write queue length does an incoming req see
system.mem_ctrls.wrQLenPdf::55                      0                       # What write queue length does an incoming req see
system.mem_ctrls.wrQLenPdf::56                      0                       # What write queue length does an incoming req see
system.mem_ctrls.wrQLenPdf::57                      0                       # What write queue length does an incoming req see
system.mem_ctrls.wrQLenPdf::58                      0                       # What write queue length does an incoming req see
system.mem_ctrls.wrQLenPdf::59                      0                       # What write queue length does an incoming req see
system.mem_ctrls.wrQLenPdf::60                      0                       # What write queue length does an incoming req see
system.mem_ctrls.wrQLenPdf::61                      0                       # What write queue length does an incoming req see
system.mem_ctrls.wrQLenPdf::62                      0                       # What write queue length does an incoming req see
system.mem_ctrls.wrQLenPdf::63                      0                       # What write queue length does an incoming req see
system.mem_ctrls.bytesPerActivate::samples        12295                       # Bytes accessed per row activation
system.mem_ctrls.bytesPerActivate::mean    241.221960                       # Bytes accessed per row activation
system.mem_ctrls.bytesPerActivate::gmean   195.343187                       # Bytes accessed per row activation
system.mem_ctrls.bytesPerActivate::stdev   177.884891                       # Bytes accessed per row activation
system.mem_ctrls.bytesPerActivate::0-127         1910     15.53%     15.53% # Bytes accessed per row activation
system.mem_ctrls.bytesPerActivate::128-255         7058     57.41%     72.94% # Bytes accessed per row activation
system.mem_ctrls.bytesPerActivate::256-383         1377     11.20%     84.14% # Bytes accessed per row activation
system.mem_ctrls.bytesPerActivate::384-511          729      5.93%     90.07% # Bytes accessed per row activation
system.mem_ctrls.bytesPerActivate::512-639          714      5.81%     95.88% # Bytes accessed per row activation
system.mem_ctrls.bytesPerActivate::640-767          198      1.61%     97.49% # Bytes accessed per row activation
system.mem_ctrls.bytesPerActivate::768-895           54      0.44%     97.93% # Bytes accessed per row activation
system.mem_ctrls.bytesPerActivate::896-1023           44      0.36%     98.28% # Bytes accessed per row activation
system.mem_ctrls.bytesPerActivate::1024-1151          211      1.72%    100.00% # Bytes accessed per row activation
system.mem_ctrls.bytesPerActivate::total        12295                       # Bytes accessed per row activation
system.mem_ctrls.rdPerTurnAround::samples          360                       # Reads before turning the bus around for writes
system.mem_ctrls.rdPerTurnAround::mean     110.711111                       # Reads before turning the bus around for writes
system.mem_ctrls.rdPerTurnAround::gmean     19.465188                       # Reads before turning the bus around for writes
system.mem_ctrls.rdPerTurnAround::stdev   1535.887451                       # Reads before turning the bus around for writes
system.mem_ctrls.rdPerTurnAround::0-1023          357     99.17%     99.17% # Reads before turning the bus around for writes
system.mem_ctrls.rdPerTurnAround::1024-2047            2      0.56%     99.72% # Reads before turning the bus around for writes
system.mem_ctrls.rdPerTurnAround::28672-29695            1      0.28%    100.00% # Reads before turning the bus around for writes
[...]
system.cpu.icache.ReadReq_avg_miss_latency::total 77178.030303                       # average ReadReq miss latency
system.cpu.icache.ReadReq_mshr_misses::.cpu.inst          528                       # number of ReadReq MSHR misses
system.cpu.icache.ReadReq_mshr_misses::total          528                       # number of ReadReq MSHR misses
system.cpu.icache.ReadReq_mshr_miss_latency::.cpu.inst     40222000                       # number of ReadReq MSHR miss cycles
system.cpu.icache.ReadReq_mshr_miss_latency::total     40222000                       # number of ReadReq MSHR miss cycles
system.cpu.icache.ReadReq_mshr_miss_rate::.cpu.inst     0.000018                       # mshr miss rate for ReadReq accesses
system.cpu.icache.ReadReq_mshr_miss_rate::total     0.000018                       # mshr miss rate for ReadReq accesses
system.cpu.icache.ReadReq_avg_mshr_miss_latency::.cpu.inst 76178.030303                       # average ReadReq mshr miss latency
system.cpu.icache.ReadReq_avg_mshr_miss_latency::total 76178.030303                       # average ReadReq mshr miss latency
system.cpu.icache.tags.pwrStateResidencyTicks::UNDEFINED  57780307500                       # Cumulative time (in ticks) in various power states
system.cpu.icache.tags.tagsinuse           494.966913                       # Cycle average of tags in use
system.cpu.icache.tags.total_refs            28671157                       # Total number of references to valid blocks.
system.cpu.icache.tags.sampled_refs               528                       # Sample count of references to valid blocks.
system.cpu.icache.tags.avg_refs          54301.433712                       # Average number of references to valid blocks.
system.cpu.icache.tags.warmup_cycle             87500                       # Cycle when the warmup percentage was hit.
system.cpu.icache.tags.occ_blocks::.cpu.inst   494.966913                       # Average occupied blocks per requestor
system.cpu.icache.tags.occ_percent::.cpu.inst     0.483366                       # Average percentage of cache occupancy
system.cpu.icache.tags.occ_percent::total     0.483366                       # Average percentage of cache occupancy
system.cpu.icache.tags.occ_task_id_blocks::1024          496                       # Occupied blocks per task id
system.cpu.icache.tags.age_task_id_blocks_1024::4          496                       # Occupied blocks per task id
system.cpu.icache.tags.occ_task_id_percent::1024     0.484375                       # Percentage of cache occupancy per task id
system.cpu.icache.tags.tag_accesses          57342842                       # Number of tag accesses
system.cpu.icache.tags.data_accesses         57342842                       # Number of data accesses
system.cpu.dtb.walker.pwrStateResidencyTicks::UNDEFINED  57780307500                       # Cumulative time (in ticks) in various power states
system.cpu.dtb.stage2_mmu.stage2_tlb.walker.pwrStateResidencyTicks::UNDEFINED  57780307500                       # Cumulative time (in ticks) in various power states
system.cpu.dcache.pwrStateResidencyTicks::UNDEFINED  57780307500                       # Cumulative time (in ticks) in various power states
system.cpu.dcache.demand_hits::.cpu.data     35662095                       # number of demand (read+write) hits
system.cpu.dcache.demand_hits::total         35662095                       # number of demand (read+write) hits
system.cpu.dcache.overall_hits::.cpu.data     35665421                       # number of overall hits
system.cpu.dcache.overall_hits::total        35665421                       # number of overall hits
system.cpu.dcache.demand_misses::.cpu.data        75304                       # number of demand (read+write) misses
system.cpu.dcache.demand_misses::total          75304                       # number of demand (read+write) misses
system.cpu.dcache.overall_misses::.cpu.data        75339                       # number of overall misses
system.cpu.dcache.overall_misses::total         75339                       # number of overall misses
system.cpu.dcache.demand_miss_latency::.cpu.data   4558461000                       # number of demand (read+write) miss cycles
system.cpu.dcache.demand_miss_latency::total   4558461000                       # number of demand (read+write) miss cycles
system.cpu.dcache.overall_miss_latency::.cpu.data   4558461000                       # number of overall miss cycles
system.cpu.dcache.overall_miss_latency::total   4558461000                       # number of overall miss cycles
system.cpu.dcache.demand_accesses::.cpu.data     35737399                       # number of demand (read+write) accesses
system.cpu.dcache.demand_accesses::total     35737399                       # number of demand (read+write) accesses
system.cpu.dcache.overall_accesses::.cpu.data     35740760                       # number of overall (read+write) accesses
system.cpu.dcache.overall_accesses::total     35740760                       # number of overall (read+write) accesses
system.cpu.dcache.demand_miss_rate::.cpu.data     0.002107                       # miss rate for demand accesses
system.cpu.dcache.demand_miss_rate::total     0.002107                       # miss rate for demand accesses
system.cpu.dcache.overall_miss_rate::.cpu.data     0.002108                       # miss rate for overall accesses
system.cpu.dcache.overall_miss_rate::total     0.002108                       # miss rate for overall accesses
system.cpu.dcache.demand_avg_miss_latency::.cpu.data 60534.115054                       # average overall miss latency
system.cpu.dcache.demand_avg_miss_latency::total 60534.115054                       # average overall miss latency
system.cpu.dcache.overall_avg_miss_latency::.cpu.data 60505.992912                       # average overall miss latency
system.cpu.dcache.overall_avg_miss_latency::total 60505.992912                       # average overall miss latency
system.cpu.dcache.blocked_cycles::no_mshrs            0                       # number of cycles access was blocked
system.cpu.dcache.blocked_cycles::no_targets            0                       # number of cycles access was blocked
system.cpu.dcache.blocked::no_mshrs                 0                       # number of cycles access was blocked
system.cpu.dcache.blocked::no_targets               0                       # number of cycles access was blocked
system.cpu.dcache.avg_blocked_cycles::no_mshrs          nan                       # average number of cycles each access was blocked
system.cpu.dcache.avg_blocked_cycles::no_targets          nan                       # average number of cycles each access was blocked
system.cpu.dcache.writebacks::.writebacks        50524                       # number of writebacks
system.cpu.dcache.writebacks::total             50524                       # number of writebacks
system.cpu.dcache.demand_mshr_hits::.cpu.data        19857                       # number of demand (read+write) MSHR hits
system.cpu.dcache.demand_mshr_hits::total        19857                       # number of demand (read+write) MSHR hits
system.cpu.dcache.overall_mshr_hits::.cpu.data        19857                       # number of overall MSHR hits
system.cpu.dcache.overall_mshr_hits::total        19857                       # number of overall MSHR hits
system.cpu.dcache.demand_mshr_misses::.cpu.data        55447                       # number of demand (read+write) MSHR misses
system.cpu.dcache.demand_mshr_misses::total        55447                       # number of demand (read+write) MSHR misses
system.cpu.dcache.overall_mshr_misses::.cpu.data        55476                       # number of overall MSHR misses
system.cpu.dcache.overall_mshr_misses::total        55476                       # number of overall MSHR misses
system.cpu.dcache.demand_mshr_miss_latency::.cpu.data   3386445000                       # number of demand (read+write) MSHR miss cycles
system.cpu.dcache.demand_mshr_miss_latency::total   3386445000                       # number of demand (read+write) MSHR miss cycles
system.cpu.dcache.overall_mshr_miss_latency::.cpu.data   3387649500                       # number of overall MSHR miss cycles
system.cpu.dcache.overall_mshr_miss_latency::total   3387649500                       # number of overall MSHR miss cycles
system.cpu.dcache.demand_mshr_miss_rate::.cpu.data     0.001552                       # mshr miss rate for demand accesses
system.cpu.dcache.demand_mshr_miss_rate::total     0.001552                       # mshr miss rate for demand accesses
system.cpu.dcache.overall_mshr_miss_rate::.cpu.data     0.001552                       # mshr miss rate for overall accesses
system.cpu.dcache.overall_mshr_miss_rate::total     0.001552                       # mshr miss rate for overall accesses
system.cpu.dcache.demand_avg_mshr_miss_latency::.cpu.data 61075.351236                       # average overall mshr miss latency
system.cpu.dcache.demand_avg_mshr_miss_latency::total 61075.351236                       # average overall mshr miss latency
system.cpu.dcache.overall_avg_mshr_miss_latency::.cpu.data 61065.136275                       # average overall mshr miss latency
system.cpu.dcache.overall_avg_mshr_miss_latency::total 61065.136275                       # average overall mshr miss latency
system.cpu.dcache.replacements                  54452                       # number of replacements
system.cpu.dcache.ReadReq_hits::.cpu.data     21462911                       # number of ReadReq hits
system.cpu.dcache.ReadReq_hits::total        21462911                       # number of ReadReq hits
system.cpu.dcache.ReadReq_misses::.cpu.data        19737                       # number of ReadReq misses
system.cpu.dcache.ReadReq_misses::total         19737                       # number of ReadReq misses
system.cpu.dcache.ReadReq_miss_latency::.cpu.data    312186000                       # number of ReadReq miss cycles
system.cpu.dcache.ReadReq_miss_latency::total    312186000                       # number of ReadReq miss cycles
system.cpu.dcache.ReadReq_accesses::.cpu.data     21482648                       # number of ReadReq accesses(hits+misses)
system.cpu.dcache.ReadReq_accesses::total     21482648                       # number of ReadReq accesses(hits+misses)
system.cpu.dcache.ReadReq_miss_rate::.cpu.data     0.000919                       # miss rate for ReadReq accesses
system.cpu.dcache.ReadReq_miss_rate::total     0.000919                       # miss rate for ReadReq accesses
system.cpu.dcache.ReadReq_avg_miss_latency::.cpu.data 15817.297462                       # average ReadReq miss latency
system.cpu.dcache.ReadReq_avg_miss_latency::total 15817.297462                       # average ReadReq miss latency
system.cpu.dcache.ReadReq_mshr_hits::.cpu.data         3225                       # number of ReadReq MSHR hits
system.cpu.dcache.ReadReq_mshr_hits::total         3225                       # number of ReadReq MSHR hits
system.cpu.dcache.ReadReq_mshr_misses::.cpu.data        16512                       # number of ReadReq MSHR misses
system.cpu.dcache.ReadReq_mshr_misses::total        16512                       # number of ReadReq MSHR misses
system.cpu.dcache.ReadReq_mshr_miss_latency::.cpu.data    240677500                       # number of ReadReq MSHR miss cycles
system.cpu.dcache.ReadReq_mshr_miss_latency::total    240677500                       # number of ReadReq MSHR miss cycles
system.cpu.dcache.ReadReq_mshr_miss_rate::.cpu.data     0.000769                       # mshr miss rate for ReadReq accesses
system.cpu.dcache.ReadReq_mshr_miss_rate::total     0.000769                       # mshr miss rate for ReadReq accesses
system.cpu.dcache.ReadReq_avg_mshr_miss_latency::.cpu.data 14575.914486                       # average ReadReq mshr miss latency
system.cpu.dcache.ReadReq_avg_mshr_miss_latency::total 14575.914486                       # average ReadReq mshr miss latency
system.cpu.dcache.WriteReq_hits::.cpu.data     14199184                       # number of WriteReq hits
system.cpu.dcache.WriteReq_hits::total       14199184                       # number of WriteReq hits
system.cpu.dcache.WriteReq_misses::.cpu.data        55567                       # number of WriteReq misses
system.cpu.dcache.WriteReq_misses::total        55567                       # number of WriteReq misses
system.cpu.dcache.WriteReq_miss_latency::.cpu.data   4246275000                       # number of WriteReq miss cycles
system.cpu.dcache.WriteReq_miss_latency::total   4246275000                       # number of WriteReq miss cycles
system.cpu.dcache.WriteReq_accesses::.cpu.data     14254751                       # number of WriteReq accesses(hits+misses)
system.cpu.dcache.WriteReq_accesses::total     14254751                       # number of WriteReq accesses(hits+misses)
system.cpu.dcache.WriteReq_miss_rate::.cpu.data     0.003898                       # miss rate for WriteReq accesses
system.cpu.dcache.WriteReq_miss_rate::total     0.003898                       # miss rate for WriteReq accesses
system.cpu.dcache.WriteReq_avg_miss_latency::.cpu.data 76417.208055                       # average WriteReq miss latency
system.cpu.dcache.WriteReq_avg_miss_latency::total 76417.208055                       # average WriteReq miss latency
system.cpu.dcache.WriteReq_mshr_hits::.cpu.data        16632                       # number of WriteReq MSHR hits
system.cpu.dcache.WriteReq_mshr_hits::total        16632                       # number of WriteReq MSHR hits
system.cpu.dcache.WriteReq_mshr_misses::.cpu.data        38935                       # number of WriteReq MSHR misses
system.cpu.dcache.WriteReq_mshr_misses::total        38935                       # number of WriteReq MSHR misses
system.cpu.dcache.WriteReq_mshr_miss_latency::.cpu.data   3145767500                       # number of WriteReq MSHR miss cycles
system.cpu.dcache.WriteReq_mshr_miss_latency::total   3145767500                       # number of WriteReq MSHR miss cycles
system.cpu.dcache.WriteReq_mshr_miss_rate::.cpu.data     0.002731                       # mshr miss rate for WriteReq accesses
system.cpu.dcache.WriteReq_mshr_miss_rate::total     0.002731                       # mshr miss rate for WriteReq accesses
system.cpu.dcache.WriteReq_avg_mshr_miss_latency::.cpu.data 80795.364068                       # average WriteReq mshr miss latency
system.cpu.dcache.WriteReq_avg_mshr_miss_latency::total 80795.364068                       # average WriteReq mshr miss latency
system.cpu.dcache.SoftPFReq_hits::.cpu.data         3326                       # number of SoftPFReq hits
system.cpu.dcache.SoftPFReq_hits::total          3326                       # number of SoftPFReq hits
system.cpu.dcache.SoftPFReq_misses::.cpu.data           35                       # number of SoftPFReq misses
system.cpu.dcache.SoftPFReq_misses::total           35                       # number of SoftPFReq misses
system.cpu.dcache.SoftPFReq_accesses::.cpu.data         3361                       # number of SoftPFReq accesses(hits+misses)
system.cpu.dcache.SoftPFReq_accesses::total         3361                       # number of SoftPFReq accesses(hits+misses)
system.cpu.dcache.SoftPFReq_miss_rate::.cpu.data     0.010414                       # miss rate for SoftPFReq accesses
system.cpu.dcache.SoftPFReq_miss_rate::total     0.010414                       # miss rate for SoftPFReq accesses
system.cpu.dcache.SoftPFReq_mshr_misses::.cpu.data           29                       # number of SoftPFReq MSHR misses
system.cpu.dcache.SoftPFReq_mshr_misses::total           29                       # number of SoftPFReq MSHR misses
system.cpu.dcache.SoftPFReq_mshr_miss_latency::.cpu.data      1204500                       # number of SoftPFReq MSHR miss cycles
system.cpu.dcache.SoftPFReq_mshr_miss_latency::total      1204500                       # number of SoftPFReq MSHR miss cycles
system.cpu.dcache.SoftPFReq_mshr_miss_rate::.cpu.data     0.008628                       # mshr miss rate for SoftPFReq accesses
system.cpu.dcache.SoftPFReq_mshr_miss_rate::total     0.008628                       # mshr miss rate for SoftPFReq accesses
system.cpu.dcache.SoftPFReq_avg_mshr_miss_latency::.cpu.data 41534.482759                       # average SoftPFReq mshr miss latency
system.cpu.dcache.SoftPFReq_avg_mshr_miss_latency::total 41534.482759                       # average SoftPFReq mshr miss latency
system.cpu.dcache.LoadLockedReq_hits::.cpu.data        89082                       # number of LoadLockedReq hits
system.cpu.dcache.LoadLockedReq_hits::total        89082                       # number of LoadLockedReq hits
system.cpu.dcache.LoadLockedReq_accesses::.cpu.data        89082                       # number of LoadLockedReq accesses(hits+misses)
system.cpu.dcache.LoadLockedReq_accesses::total        89082                       # number of LoadLockedReq accesses(hits+misses)
system.cpu.dcache.StoreCondReq_hits::.cpu.data        89082                       # number of StoreCondReq hits
system.cpu.dcache.StoreCondReq_hits::total        89082                       # number of StoreCondReq hits
system.cpu.dcache.StoreCondReq_accesses::.cpu.data        89082                       # number of StoreCondReq accesses(hits+misses)
system.cpu.dcache.StoreCondReq_accesses::total        89082                       # number of StoreCondReq accesses(hits+misses)
system.cpu.dcache.tags.pwrStateResidencyTicks::UNDEFINED  57780307500                       # Cumulative time (in ticks) in various power states
system.cpu.dcache.tags.tagsinuse          1020.333460                       # Cycle average of tags in use
system.cpu.dcache.tags.total_refs            35899061                       # Total number of references to valid blocks.
system.cpu.dcache.tags.sampled_refs             55476                       # Sample count of references to valid blocks.
system.cpu.dcache.tags.avg_refs            647.109759                       # Average number of references to valid blocks.
system.cpu.dcache.tags.warmup_cycle            195500                       # Cycle when the warmup percentage was hit.
system.cpu.dcache.tags.occ_blocks::.cpu.data  1020.333460                       # Average occupied blocks per requestor
system.cpu.dcache.tags.occ_percent::.cpu.data     0.996419                       # Average percentage of cache occupancy
system.cpu.dcache.tags.occ_percent::total     0.996419                       # Average percentage of cache occupancy
system.cpu.dcache.tags.occ_task_id_blocks::1024         1024                       # Occupied blocks per task id
system.cpu.dcache.tags.age_task_id_blocks_1024::0            5                       # Occupied blocks per task id
system.cpu.dcache.tags.age_task_id_blocks_1024::1           56                       # Occupied blocks per task id
system.cpu.dcache.tags.age_task_id_blocks_1024::2          537                       # Occupied blocks per task id
system.cpu.dcache.tags.age_task_id_blocks_1024::3          389                       # Occupied blocks per task id
system.cpu.dcache.tags.age_task_id_blocks_1024::4           37                       # Occupied blocks per task id
system.cpu.dcache.tags.occ_task_id_percent::1024            1                       # Percentage of cache occupancy per task id
system.cpu.dcache.tags.tag_accesses          71893324                       # Number of tag accesses
system.cpu.dcache.tags.data_accesses         71893324                       # Number of data accesses
system.cpu.itb.walker.pwrStateResidencyTicks::UNDEFINED  57780307500                       # Cumulative time (in ticks) in various power states
system.cpu.itb.stage2_mmu.stage2_tlb.walker.pwrStateResidencyTicks::UNDEFINED  57780307500                       # Cumulative time (in ticks) in various power states

---------- End Simulation Statistics   ----------
