
---------- Begin Simulation Statistics ----------
final_tick                                66499856000                       # Number of ticks from beginning of simulation (restored from checkpoints and never reset)
host_inst_rate                                 226622                       # Simulator instruction rate (inst/s)
host_mem_usage                                 686748                       # Number of bytes of host memory used
host_op_rate                                   247996                       # Simulator op (including micro ops) rate (op/s)
host_seconds                                   441.26                       # Real time elapsed on the host
host_tick_rate                              150702942                       # Simulator tick rate (ticks/s)
sim_freq                                 1000000000000                       # Frequency of simulated ticks
sim_insts                                   100000001                       # Number of instructions simulated
sim_ops                                     109431937                       # Number of ops (including micro ops) simulated
sim_seconds                                  0.066500                       # Number of seconds simulated
sim_ticks                                 66499856000                       # Number of ticks simulated
system.cpu.branchPred.BTBCorrect                    0                       # Number of correct BTB predictions (this stat may not work properly.
system.cpu.branchPred.BTBHitPct             87.606113                       # BTB Hit Percentage
system.cpu.branchPred.BTBHits                 8698962                       # Number of BTB hits
system.cpu.branchPred.BTBLookups              9929629                       # Number of BTB lookups
system.cpu.branchPred.RASInCorrect                348                       # Number of incorrect RAS predictions.
system.cpu.branchPred.condIncorrect            154852                       # Number of conditional branches incorrect
system.cpu.branchPred.condPredicted          16493274                       # Number of conditional branches predicted
system.cpu.branchPred.indirectHits             300027                       # Number of indirect target hits.
system.cpu.branchPred.indirectLookups          523193                       # Number of indirect predictor lookups.
system.cpu.branchPred.indirectMisses           223166                       # Number of indirect misses.
system.cpu.branchPred.lookups                20555813                       # Number of BP lookups
system.cpu.branchPred.usedRAS                 1050683                       # Number of times the RAS was used to get a target.
system.cpu.branchPredindirectMispredicted         1043                       # Number of mispredicted indirect branches.
system.cpu.committedInsts                   100000001                       # Number of instructions committed
system.cpu.committedOps                     109431937                       # Number of ops (including micro ops) committed
system.cpu.cpi                               1.329997                       # CPI: cycles per instruction
system.cpu.discardedOps                        719798                       # Number of ops (including micro ops) which were discarded before commit
system.cpu.dtb.accesses                             0                       # DTB accesses
system.cpu.dtb.align_faults                         0                       # Number of TLB faults due to alignment restrictions
system.cpu.dtb.domain_faults                        0                       # Number of TLB faults due to domain restrictions
system.cpu.dtb.flush_entries                        0                       # Number of entries that have been flushed from TLB
system.cpu.dtb.flush_tlb                            0                       # Number of times complete TLB was flushed
system.cpu.dtb.flush_tlb_asid                       0                       # Number of times TLB was flushed by ASID
system.cpu.dtb.flush_tlb_mva                        0                       # Number of times TLB was flushed by MVA
system.cpu.dtb.flush_tlb_mva_asid                   0                       # Number of times TLB was flushed by MVA & ASID
system.cpu.dtb.hits                                 0                       # DTB hits
system.cpu.dtb.inst_accesses                        0                       # ITB inst accesses
system.cpu.dtb.inst_hits                            0                       # ITB inst hits
system.cpu.dtb.inst_misses                          0                       # ITB inst misses
system.cpu.dtb.misses                               0                       # DTB misses
system.cpu.dtb.perms_faults                         0                       # Number of TLB faults due to permissions restrictions
system.cpu.dtb.prefetch_faults                      0                       # Number of TLB faults due to prefetch
system.cpu.dtb.read_accesses                        0                       # DTB read accesses
system.cpu.dtb.read_hits                            0                       # DTB read hits
system.cpu.dtb.read_misses                          0                       # DTB read misses
system.cpu.dtb.stage2_mmu.stage2_tlb.accesses            0                       # DTB accesses
system.cpu.dtb.stage2_mmu.stage2_tlb.align_faults            0                       # Number of TLB faults due to alignment restrictions
system.cpu.dtb.stage2_mmu.stage2_tlb.domain_faults            0                       # Number of TLB faults due to domain restrictions
system.cpu.dtb.stage2_mmu.stage2_tlb.flush_entries            0                       # Number of entries that have been flushed from TLB
system.cpu.dtb.stage2_mmu.stage2_tlb.flush_tlb            0                       # Number of times complete TLB was flushed
system.cpu.dtb.stage2_mmu.stage2_tlb.flush_tlb_asid            0                       # Number of times TLB was flushed by ASID
system.cpu.dtb.stage2_mmu.stage2_tlb.flush_tlb_mva            0                       # Number of times TLB was flushed by MVA
system.cpu.dtb.stage2_mmu.stage2_tlb.flush_tlb_mva_asid            0                       # Number of times TLB was flushed by MVA & ASID
system.cpu.dtb.stage2_mmu.stage2_tlb.hits            0                       # DTB hits
system.cpu.dtb.stage2_mmu.stage2_tlb.inst_accesses            0                       # ITB inst accesses
system.cpu.dtb.stage2_mmu.stage2_tlb.inst_hits            0                       # ITB inst hits
system.cpu.dtb.stage2_mmu.stage2_tlb.inst_misses            0                       # ITB inst misses
system.cpu.dtb.stage2_mmu.stage2_tlb.misses            0                       # DTB misses
system.cpu.dtb.stage2_mmu.stage2_tlb.perms_faults            0                       # Number of TLB faults due to permissions restrictions
system.cpu.dtb.stage2_mmu.stage2_tlb.prefetch_faults            0                       # Number of TLB faults due to prefetch
system.cpu.dtb.stage2_mmu.stage2_tlb.read_accesses            0                       # DTB read accesses
system.cpu.dtb.stage2_mmu.stage2_tlb.read_hits            0                       # DTB read hits
system.cpu.dtb.stage2_mmu.stage2_tlb.read_misses            0                       # DTB read misses
system.cpu.dtb.stage2_mmu.stage2_tlb.walker.walkRequestOrigin_Requested::Data            0                       # Table walker requests started/completed, data/inst
system.cpu.dtb.stage2_mmu.stage2_tlb.walker.walkRequestOrigin_Requested::Inst            0                       # Table walker requests started/completed, data/inst
system.cpu.dtb.stage2_mmu.stage2_tlb.walker.walkRequestOrigin_Requested::total            0                       # Table walker requests started/completed, data/inst
system.cpu.dtb.stage2_mmu.stage2_tlb.walker.walkRequestOrigin_Completed::Data            0                       # Table walker requests started/completed, data/inst
system.cpu.dtb.stage2_mmu.stage2_tlb.walker.walkRequestOrigin_Completed::Inst            0                       # Table walker requests started/completed, data/inst
system.cpu.dtb.stage2_mmu.stage2_tlb.walker.walkRequestOrigin_Completed::total            0                       # Table walker requests started/completed, data/inst
system.cpu.dtb.stage2_mmu.stage2_tlb.walker.walkRequestOrigin::total            0                       # Table walker requests started/completed, data/inst
system.cpu.dtb.stage2_mmu.stage2_tlb.walker.walks            0                       # Table walker walks requested
system.cpu.dtb.stage2_mmu.stage2_tlb.write_accesses            0                       # DTB write accesses
system.cpu.dtb.stage2_mmu.stage2_tlb.write_hits            0                       # DTB write hits
system.cpu.dtb.stage2_mmu.stage2_tlb.write_misses            0                       # DTB write misses
system.cpu.dtb.walker.walkRequestOrigin_Requested::Data            0                       # Table walker requests started/completed, data/inst
system.cpu.dtb.walker.walkRequestOrigin_Requested::Inst            0                       # Table walker requests started/completed, data/inst
system.cpu.dtb.walker.walkRequestOrigin_Requested::total            0                       # Table walker requests started/completed, data/inst
system.cpu.dtb.walker.walkRequestOrigin_Completed::Data            0                       # Table walker requests started/completed, data/inst
system.cpu.dtb.walker.walkRequestOrigin_Completed::Inst            0                       # Table walker requests started/completed, data/inst
system.cpu.dtb.walker.walkRequestOrigin_Completed::total            0                       # Table walker requests started/completed, data/inst
system.cpu.dtb.walker.walkRequestOrigin::total            0                       # Table walker requests started/completed, data/inst
system.cpu.dtb.walker.walks                         0                       # Table walker walks requested
system.cpu.dtb.write_accesses                       0                       # DTB write accesses
system.cpu.dtb.write_hits                           0                       # DTB write hits
system.cpu.dtb.write_misses                         0                       # DTB write misses
system.cpu.fetch2.amo_instructions                  0                       # Number of memory atomic instructions successfully decoded
system.cpu.fetch2.fp_instructions                   0                       # Number of floating point instructions successfully decoded
system.cpu.fetch2.int_instructions           49721848                       # Number of integer instructions successfully decoded
system.cpu.fetch2.load_instructions          17195295                       # Number of memory load instructions successfully decoded
system.cpu.fetch2.store_instructions          9989281                       # Number of memory store instructions successfully decoded
system.cpu.fetch2.vec_instructions                  0                       # Number of SIMD instructions successfully decoded
system.cpu.idleCycles                        15088561                       # Total number of cycles that the object has spent stopped
system.cpu.ipc                               0.751881                       # IPC: instructions per cycle
system.cpu.itb.accesses                             0                       # DTB accesses
system.cpu.itb.align_faults                         0                       # Number of TLB faults due to alignment restrictions
system.cpu.itb.domain_faults                        0                       # Number of TLB faults due to domain restrictions
system.cpu.itb.flush_entries                        0                       # Number of entries that have been flushed from TLB
system.cpu.itb.flush_tlb                            0                       # Number of times complete TLB was flushed
system.cpu.itb.flush_tlb_asid                       0                       # Number of times TLB was flushed by ASID
system.cpu.itb.flush_tlb_mva                        0                       # Number of times TLB was flushed by MVA
system.cpu.itb.flush_tlb_mva_asid                   0                       # Number of times TLB was flushed by MVA & ASID
system.cpu.itb.hits                                 0                       # DTB hits
system.cpu.itb.inst_accesses                        0                       # ITB inst accesses
system.cpu.itb.inst_hits                            0                       # ITB inst hits
system.cpu.itb.inst_misses                          0                       # ITB inst misses
system.cpu.itb.misses                               0                       # DTB misses
system.cpu.itb.perms_faults                         0                       # Number of TLB faults due to permissions restrictions
system.cpu.itb.prefetch_faults                      0                       # Number of TLB faults due to prefetch
system.cpu.itb.read_accesses                        0                       # DTB read accesses
system.cpu.itb.read_hits                            0                       # DTB read hits
system.cpu.itb.read_misses                          0                       # DTB read misses
system.cpu.itb.stage2_mmu.stage2_tlb.accesses            0                       # DTB accesses
system.cpu.itb.stage2_mmu.stage2_tlb.align_faults            0                       # Number of TLB faults due to alignment restrictions
system.cpu.itb.stage2_mmu.stage2_tlb.domain_faults            0                       # Number of TLB faults due to domain restrictions
system.cpu.itb.stage2_mmu.stage2_tlb.flush_entries            0                       # Number of entries that have been flushed from TLB
system.cpu.itb.stage2_mmu.stage2_tlb.flush_tlb            0                       # Number of times complete TLB was flushed
system.cpu.itb.stage2_mmu.stage2_tlb.flush_tlb_asid            0                       # Number of times TLB was flushed by ASID
system.cpu.itb.stage2_mmu.stage2_tlb.flush_tlb_mva            0                       # Number of times TLB was flushed by MVA
system.cpu.itb.stage2_mmu.stage2_tlb.flush_tlb_mva_asid            0                       # Number of times TLB was flushed by MVA & ASID
system.cpu.itb.stage2_mmu.stage2_tlb.hits            0                       # DTB hits
system.cpu.itb.stage2_mmu.stage2_tlb.inst_accesses            0                       # ITB inst accesses
system.cpu.itb.stage2_mmu.stage2_tlb.inst_hits            0                       # ITB inst hits
system.cpu.itb.stage2_mmu.stage2_tlb.inst_misses            0                       # ITB inst misses
system.cpu.itb.stage2_mmu.stage2_tlb.misses            0                       # DTB misses
system.cpu.itb.stage2_mmu.stage2_tlb.perms_faults            0                       # Number of TLB faults due to permissions restrictions
system.cpu.itb.stage2_mmu.stage2_tlb.prefetch_faults            0                       # Number of TLB faults due to prefetch
system.cpu.itb.stage2_mmu.stage2_tlb.read_accesses            0                       # DTB read accesses
system.cpu.itb.stage2_mmu.stage2_tlb.read_hits            0                       # DTB read hits
system.cpu.itb.stage2_mmu.stage2_tlb.read_misses            0                       # DTB read misses
system.cpu.itb.stage2_mmu.stage2_tlb.walker.walkRequestOrigin_Requested::Data            0                       # Table walker requests started/completed, data/inst
system.cpu.itb.stage2_mmu.stage2_tlb.walker.walkRequestOrigin_Requested::Inst            0                       # Table walker requests started/completed, data/inst
system.cpu.itb.stage2_mmu.stage2_tlb.walker.walkRequestOrigin_Requested::total            0                       # Table walker requests started/completed, data/inst
system.cpu.itb.stage2_mmu.stage2_tlb.walker.walkRequestOrigin_Completed::Data            0                       # Table walker requests started/completed, data/inst
system.cpu.itb.stage2_mmu.stage2_tlb.walker.walkRequestOrigin_Completed::Inst            0                       # Table walker requests started/completed, data/inst
system.cpu.itb.stage2_mmu.stage2_tlb.walker.walkRequestOrigin_Completed::total            0                       # Table walker requests started/completed, data/inst
system.cpu.itb.stage2_mmu.stage2_tlb.walker.walkRequestOrigin::total            0                       # Table walker requests started/completed, data/inst
system.cpu.itb.stage2_mmu.stage2_tlb.walker.walks            0                       # Table walker walks requested
system.cpu.itb.stage2_mmu.stage2_tlb.write_accesses            0                       # DTB write accesses
system.cpu.itb.stage2_mmu.stage2_tlb.write_hits            0                       # DTB write hits
system.cpu.itb.stage2_mmu.stage2_tlb.write_misses            0                       # DTB write misses
system.cpu.itb.walker.walkRequestOrigin_Requested::Data            0                       # Table walker requests started/completed, data/inst
system.cpu.itb.walker.walkRequestOrigin_Requested::Inst            0                       # Table walker requests started/completed, data/inst
system.cpu.itb.walker.walkRequestOrigin_Requested::total            0                       # Table walker requests started/completed, data/inst
system.cpu.itb.walker.walkRequestOrigin_Completed::Data            0                       # Table walker requests started/completed, data/inst
system.cpu.itb.walker.walkRequestOrigin_Completed::Inst            0                       # Table walker requests started/completed, data/inst
system.cpu.itb.walker.walkRequestOrigin_Completed::total            0                       # Table walker requests started/completed, data/inst
system.cpu.itb.walker.walkRequestOrigin::total            0                       # Table walker requests started/completed, data/inst
system.cpu.itb.walker.walks                         0                       # Table walker walks requested
system.cpu.itb.write_accesses                       0                       # DTB write accesses
system.cpu.itb.write_hits                           0                       # DTB write hits
system.cpu.itb.write_misses                         0                       # DTB write misses
system.cpu.numCycles                        132999712                       # number of cpu cycles simulated
system.cpu.numFetchSuspends                         0                       # Number of times Execute suspended instruction fetching
system.cpu.numWorkItemsCompleted                    0                       # number of work items this cpu completed
system.cpu.numWorkItemsStarted                      0                       # number of work items this cpu started
system.cpu.op_class_0::No_OpClass                   0      0.00%      0.00% # Class of committed instruction
system.cpu.op_class_0::IntAlu                72955303     66.67%     66.67% # Class of committed instruction
system.cpu.op_class_0::IntMult                 568365      0.52%     67.19% # Class of committed instruction
system.cpu.op_class_0::IntDiv                       0      0.00%     67.19% # Class of committed instruction
system.cpu.op_class_0::FloatAdd                     0      0.00%     67.19% # Class of committed instruction
system.cpu.op_class_0::FloatCmp                     0      0.00%     67.19% # Class of committed instruction
system.cpu.op_class_0::FloatCvt                     0      0.00%     67.19% # Class of committed instruction
system.cpu.op_class_0::FloatMult                    0      0.00%     67.19% # Class of committed instruction
system.cpu.op_class_0::FloatMultAcc                 0      0.00%     67.19% # Class of committed instruction
system.cpu.op_class_0::FloatDiv                     0      0.00%     67.19% # Class of committed instruction
system.cpu.op_class_0::FloatMisc                    0      0.00%     67.19% # Class of committed instruction
system.cpu.op_class_0::FloatSqrt                    0      0.00%     67.19% # Class of committed instruction
system.cpu.op_class_0::SimdAdd                 241252      0.22%     67.41% # Class of committed instruction
system.cpu.op_class_0::SimdAddAcc                   0      0.00%     67.41% # Class of committed instruction
system.cpu.op_class_0::SimdAlu                 154720      0.14%     67.55% # Class of committed instruction
system.cpu.op_class_0::SimdCmp                 120626      0.11%     67.66% # Class of committed instruction
system.cpu.op_class_0::SimdCvt                      0      0.00%     67.66% # Class of committed instruction
system.cpu.op_class_0::SimdMisc                 44544      0.04%     67.70% # Class of committed instruction
system.cpu.op_class_0::SimdMult                     0      0.00%     67.70% # Class of committed instruction
system.cpu.op_class_0::SimdMultAcc                  0      0.00%     67.70% # Class of committed instruction
system.cpu.op_class_0::SimdShift                    0      0.00%     67.70% # Class of committed instruction
system.cpu.op_class_0::SimdShiftAcc                 0      0.00%     67.70% # Class of committed instruction
system.cpu.op_class_0::SimdDiv                      0      0.00%     67.70% # Class of committed instruction
system.cpu.op_class_0::SimdSqrt                     0      0.00%     67.70% # Class of committed instruction
system.cpu.op_class_0::SimdFloatAdd                 0      0.00%     67.70% # Class of committed instruction
system.cpu.op_class_0::SimdFloatAlu                 0      0.00%     67.70% # Class of committed instruction
system.cpu.op_class_0::SimdFloatCmp                 0      0.00%     67.70% # Class of committed instruction
system.cpu.op_class_0::SimdFloatCvt                 0      0.00%     67.70% # Class of committed instruction
system.cpu.op_class_0::SimdFloatDiv                 0      0.00%     67.70% # Class of committed instruction
system.cpu.op_class_0::SimdFloatMisc           166465      0.15%     67.85% # Class of committed instruction
system.cpu.op_class_0::SimdFloatMult                0      0.00%     67.85% # Class of committed instruction
system.cpu.op_class_0::SimdFloatMultAcc             0      0.00%     67.85% # Class of committed instruction
system.cpu.op_class_0::SimdFloatSqrt                0      0.00%     67.85% # Class of committed instruction
system.cpu.op_class_0::SimdReduceAdd                0      0.00%     67.85% # Class of committed instruction
system.cpu.op_class_0::SimdReduceAlu                0      0.00%     67.85% # Class of committed instruction
system.cpu.op_class_0::SimdReduceCmp                0      0.00%     67.85% # Class of committed instruction
system.cpu.op_class_0::SimdFloatReduceAdd            0      0.00%     67.85% # Class of committed instruction
system.cpu.op_class_0::SimdFloatReduceCmp            0      0.00%     67.85% # Class of committed instruction
system.cpu.op_class_0::SimdAes                      0      0.00%     67.85% # Class of committed instruction
system.cpu.op_class_0::SimdAesMix                   0      0.00%     67.85% # Class of committed instruction
system.cpu.op_class_0::SimdSha1Hash                 0      0.00%     67.85% # Class of committed instruction
system.cpu.op_class_0::SimdSha1Hash2                0      0.00%     67.85% # Class of committed instruction
system.cpu.op_class_0::SimdSha256Hash               0      0.00%     67.85% # Class of committed instruction
system.cpu.op_class_0::SimdSha256Hash2              0      0.00%     67.85% # Class of committed instruction
system.cpu.op_class_0::SimdShaSigma2                0      0.00%     67.85% # Class of committed instruction
system.cpu.op_class_0::SimdShaSigma3                0      0.00%     67.85% # Class of committed instruction
system.cpu.op_class_0::SimdPredAlu                  0      0.00%     67.85% # Class of committed instruction
system.cpu.op_class_0::MemRead               20646465     18.87%     86.72% # Class of committed instruction
system.cpu.op_class_0::MemWrite              14534197     13.28%    100.00% # Class of committed instruction
system.cpu.op_class_0::FloatMemRead                 0      0.00%    100.00% # Class of committed instruction
system.cpu.op_class_0::FloatMemWrite                0      0.00%    100.00% # Class of committed instruction
system.cpu.op_class_0::IprAccess                    0      0.00%    100.00% # Class of committed instruction
system.cpu.op_class_0::InstPrefetch                 0      0.00%    100.00% # Class of committed instruction
system.cpu.op_class_0::total                109431937                       # Class of committed instruction
system.cpu.tickCycles                       117911151                       # Number of cycles that the object actually ticked
system.cpu.workload.numSyscalls                    86                       # Number of system calls
system.membus.snoop_filter.hit_multi_requests            0                       # Number of requests hitting in the snoop filter with multiple (>1) holders of the requested data.
system.membus.snoop_filter.hit_multi_snoops            0                       # Number of snoops hitting in the snoop filter with multiple (>1) holders of the requested data.
system.membus.snoop_filter.hit_single_requests         3474                       # Number of requests hitting in the snoop filter with a single holder of the requested data.
system.membus.snoop_filter.hit_single_snoops            0                       # Number of snoops hitting in the snoop filter with a single holder of the requested data.
system.membus.snoop_filter.tot_requests         23557                       # Total number of requests made to the snoop filter.
system.membus.snoop_filter.tot_snoops               0                       # Total number of snoops made to the snoop filter.
system.tol2bus.snoop_filter.hit_multi_requests          533                       # Number of requests hitting in the snoop filter with multiple (>1) holders of the requested data.
system.tol2bus.snoop_filter.hit_multi_snoops            4                       # Number of snoops hitting in the snoop filter with multiple (>1) holders of the requested data.
system.tol2bus.snoop_filter.hit_single_requests       980189                       # Number of requests hitting in the snoop filter with a single holder of the requested data.
system.tol2bus.snoop_filter.hit_single_snoops          221                       # Number of snoops hitting in the snoop filter with a single holder of the requested data.
system.tol2bus.snoop_filter.tot_requests      1961105                       # Total number of requests made to the snoop filter.
system.tol2bus.snoop_filter.tot_snoops            225                       # Total number of snoops made to the snoop filter.
system.membus.pwrStateResidencyTicks::UNDEFINED  66499856000                       # Cumulative time (in ticks) in various power states
system.membus.trans_dist::ReadResp                671                       # Transaction distribution
system.membus.trans_dist::WritebackDirty         3329                       # Transaction distribution
system.membus.trans_dist::CleanEvict              145                       # Transaction distribution
system.membus.trans_dist::ReadExReq             19412                       # Transaction distribution
system.membus.trans_dist::ReadExResp            19412                       # Transaction distribution
system.membus.trans_dist::ReadSharedReq           671                       # Transaction distribution
system.membus.pkt_count_system.l2.mem_side::system.mem_ctrls.port        43640                       # Packet count per connected master and slave (bytes)
system.membus.pkt_count::total                  43640                       # Packet count per connected master and slave (bytes)
system.membus.pkt_size_system.l2.mem_side::system.mem_ctrls.port      2996736                       # Cumulative packet size per connected master and slave (bytes)
system.membus.pkt_size::total                 2996736                       # Cumulative packet size per connected master and slave (bytes)
system.membus.snoops                                0                       # Total snoops (count)
system.membus.snoopTraffic                          0                       # Total snoop traffic (bytes)
system.membus.snoop_fanout::samples             20083                       # Request fanout histogram
system.membus.snoop_fanout::mean                    0                       # Request fanout histogram
system.membus.snoop_fanout::stdev                   0                       # Request fanout histogram
system.membus.snoop_fanout::underflows              0      0.00%      0.00% # Request fanout histogram
system.membus.snoop_fanout::0                   20083    100.00%    100.00% # Request fanout histogram
system.membus.snoop_fanout::1                       0      0.00%    100.00% # Request fanout histogram
system.membus.snoop_fanout::overflows               0      0.00%    100.00% # Request fanout histogram
system.membus.snoop_fanout::min_value               0                       # Request fanout histogram
system.membus.snoop_fanout::max_value               0                       # Request fanout histogram
system.membus.snoop_fanout::total               20083                       # Request fanout histogram
system.membus.respLayer1.occupancy          188784250                       # Layer occupancy (ticks)
system.membus.respLayer1.utilization              0.3                       # Layer utilization (%)
system.membus.reqLayer0.occupancy            55410500                       # Layer occupancy (ticks)
system.membus.reqLayer0.utilization               0.1                       # Layer utilization (%)
system.tol2bus.pwrStateResidencyTicks::UNDEFINED  66499856000                       # Cumulative time (in ticks) in various power states
system.tol2bus.trans_dist::ReadResp            961509                       # Transaction distribution
system.tol2bus.trans_dist::WritebackDirty        34021                       # Transaction distribution
system.tol2bus.trans_dist::WritebackClean       947380                       # Transaction distribution
system.tol2bus.trans_dist::CleanEvict            2482                       # Transaction distribution
system.tol2bus.trans_dist::ReadExReq            19412                       # Transaction distribution
system.tol2bus.trans_dist::ReadExResp           19412                       # Transaction distribution
system.tol2bus.trans_dist::ReadCleanReq        947605                       # Transaction distribution
system.tol2bus.trans_dist::ReadSharedReq        13904                       # Transaction distribution
system.tol2bus.pkt_count_system.cpu.icache.mem_side::system.l2.cpu_side      2842590                       # Packet count per connected master and slave (bytes)
system.tol2bus.pkt_count_system.cpu.dcache.mem_side::system.l2.cpu_side        99436                       # Packet count per connected master and slave (bytes)
system.tol2bus.pkt_count::total               2942026                       # Packet count per connected master and slave (bytes)
system.tol2bus.pkt_size_system.cpu.icache.mem_side::system.l2.cpu_side    242558080                       # Cumulative packet size per connected master and slave (bytes)
system.tol2bus.pkt_size_system.cpu.dcache.mem_side::system.l2.cpu_side      8193024                       # Cumulative packet size per connected master and slave (bytes)
system.tol2bus.pkt_size::total              250751104                       # Cumulative packet size per connected master and slave (bytes)
system.tol2bus.snoops                            3699                       # Total snoops (count)
system.tol2bus.snoopTraffic                    426112                       # Total snoop traffic (bytes)
system.tol2bus.snoop_fanout::samples           984620                       # Request fanout histogram
system.tol2bus.snoop_fanout::mean            0.000779                       # Request fanout histogram
system.tol2bus.snoop_fanout::stdev           0.028045                       # Request fanout histogram
system.tol2bus.snoop_fanout::underflows             0      0.00%      0.00% # Request fanout histogram
system.tol2bus.snoop_fanout::0                 983857     99.92%     99.92% # Request fanout histogram
system.tol2bus.snoop_fanout::1                    759      0.08%    100.00% # Request fanout histogram
system.tol2bus.snoop_fanout::2                      4      0.00%    100.00% # Request fanout histogram
system.tol2bus.snoop_fanout::overflows              0      0.00%    100.00% # Request fanout histogram
system.tol2bus.snoop_fanout::min_value              0                       # Request fanout histogram
system.tol2bus.snoop_fanout::max_value              2                       # Request fanout histogram
system.tol2bus.snoop_fanout::total             984620                       # Request fanout histogram
system.tol2bus.reqLayer0.occupancy         2936696500                       # Layer occupancy (ticks)
system.tol2bus.reqLayer0.utilization              4.4                       # Layer utilization (%)
system.tol2bus.respLayer1.occupancy          83291996                       # Layer occupancy (ticks)
system.tol2bus.respLayer1.utilization             0.1                       # Layer utilization (%)
system.tol2bus.respLayer0.occupancy        2369012500                       # Layer occupancy (ticks)
system.tol2bus.respLayer0.utilization             3.6                       # Layer utilization (%)
system.voltage_domain.voltage                       1                       # Voltage in Volts
system.clk_domain.clock                          1000                       # Clock period in ticks
system.l2.pwrStateResidencyTicks::UNDEFINED  66499856000                       # Cumulative time (in ticks) in various power states
system.l2.demand_hits::.cpu.inst               947270                       # number of demand (read+write) hits
system.l2.demand_hits::.cpu.data                13564                       # number of demand (read+write) hits
system.l2.demand_hits::total                   960834                       # number of demand (read+write) hits
system.l2.overall_hits::.cpu.inst              947270                       # number of overall hits
system.l2.overall_hits::.cpu.data               13564                       # number of overall hits
system.l2.overall_hits::total                  960834                       # number of overall hits
system.l2.demand_misses::.cpu.inst                335                       # number of demand (read+write) misses
system.l2.demand_misses::.cpu.data              19752                       # number of demand (read+write) misses
system.l2.demand_misses::total                  20087                       # number of demand (read+write) misses
system.l2.overall_misses::.cpu.inst               335                       # number of overall misses
system.l2.overall_misses::.cpu.data             19752                       # number of overall misses
system.l2.overall_misses::total                 20087                       # number of overall misses
system.l2.demand_miss_latency::.cpu.inst     27691000                       # number of demand (read+write) miss cycles
system.l2.demand_miss_latency::.cpu.data   1747970500                       # number of demand (read+write) miss cycles
system.l2.demand_miss_latency::total       1775661500                       # number of demand (read+write) miss cycles
system.l2.overall_miss_latency::.cpu.inst     27691000                       # number of overall miss cycles
system.l2.overall_miss_latency::.cpu.data   1747970500                       # number of overall miss cycles
system.l2.overall_miss_latency::total      1775661500                       # number of overall miss cycles
system.l2.demand_accesses::.cpu.inst           947605                       # number of demand (read+write) accesses
system.l2.demand_accesses::.cpu.data            33316                       # number of demand (read+write) accesses
system.l2.demand_accesses::total               980921                       # number of demand (read+write) accesses
system.l2.overall_accesses::.cpu.inst          947605                       # number of overall (read+write) accesses
system.l2.overall_accesses::.cpu.data           33316                       # number of overall (read+write) accesses
system.l2.overall_accesses::total              980921                       # number of overall (read+write) accesses
system.l2.demand_miss_rate::.cpu.inst        0.000354                       # miss rate for demand accesses
system.l2.demand_miss_rate::.cpu.data        0.592868                       # miss rate for demand accesses
system.l2.demand_miss_rate::total            0.020478                       # miss rate for demand accesses
system.l2.overall_miss_rate::.cpu.inst       0.000354                       # miss rate for overall accesses
system.l2.overall_miss_rate::.cpu.data       0.592868                       # miss rate for overall accesses
system.l2.overall_miss_rate::total           0.020478                       # miss rate for overall accesses
system.l2.demand_avg_miss_latency::.cpu.inst 82659.701493                       # average overall miss latency
system.l2.demand_avg_miss_latency::.cpu.data 88495.873836                       # average overall miss latency
system.l2.demand_avg_miss_latency::total 88398.541345                       # average overall miss latency
system.l2.overall_avg_miss_latency::.cpu.inst 82659.701493                       # average overall miss latency
system.l2.overall_avg_miss_latency::.cpu.data 88495.873836                       # average overall miss latency
system.l2.overall_avg_miss_latency::total 88398.541345                       # average overall miss latency
system.l2.blocked_cycles::no_mshrs                  0                       # number of cycles access was blocked
system.l2.blocked_cycles::no_targets                0                       # number of cycles access was blocked
system.l2.blocked::no_mshrs                         0                       # number of cycles access was blocked
system.l2.blocked::no_targets                       0                       # number of cycles access was blocked
system.l2.avg_blocked_cycles::no_mshrs            nan                       # average number of cycles each access was blocked
system.l2.avg_blocked_cycles::no_targets          nan                       # average number of cycles each access was blocked
system.l2.writebacks::.writebacks                3329                       # number of writebacks
system.l2.writebacks::total                      3329                       # number of writebacks
system.l2.demand_mshr_hits::.cpu.data               4                       # number of demand (read+write) MSHR hits
system.l2.demand_mshr_hits::total                   4                       # number of demand (read+write) MSHR hits
system.l2.overall_mshr_hits::.cpu.data              4                       # number of overall MSHR hits
system.l2.overall_mshr_hits::total                  4                       # number of overall MSHR hits
system.l2.demand_mshr_misses::.cpu.inst           335                       # number of demand (read+write) MSHR misses
system.l2.demand_mshr_misses::.cpu.data         19748                       # number of demand (read+write) MSHR misses
system.l2.demand_mshr_misses::total             20083                       # number of demand (read+write) MSHR misses
system.l2.overall_mshr_misses::.cpu.inst          335                       # number of overall MSHR misses
system.l2.overall_mshr_misses::.cpu.data        19748                       # number of overall MSHR misses
system.l2.overall_mshr_misses::total            20083                       # number of overall MSHR misses
system.l2.demand_mshr_miss_latency::.cpu.inst     24341000                       # number of demand (read+write) MSHR miss cycles
system.l2.demand_mshr_miss_latency::.cpu.data   1550213000                       # number of demand (read+write) MSHR miss cycles
system.l2.demand_mshr_miss_latency::total   1574554000                       # number of demand (read+write) MSHR miss cycles
system.l2.overall_mshr_miss_latency::.cpu.inst     24341000                       # number of overall MSHR miss cycles
system.l2.overall_mshr_miss_latency::.cpu.data   1550213000                       # number of overall MSHR miss cycles
system.l2.overall_mshr_miss_latency::total   1574554000                       # number of overall MSHR miss cycles
system.l2.demand_mshr_miss_rate::.cpu.inst     0.000354                       # mshr miss rate for demand accesses
system.l2.demand_mshr_miss_rate::.cpu.data     0.592748                       # mshr miss rate for demand accesses
system.l2.demand_mshr_miss_rate::total       0.020474                       # mshr miss rate for demand accesses
system.l2.overall_mshr_miss_rate::.cpu.inst     0.000354                       # mshr miss rate for overall accesses
system.l2.overall_mshr_miss_rate::.cpu.data     0.592748                       # mshr miss rate for overall accesses
system.l2.overall_mshr_miss_rate::total      0.020474                       # mshr miss rate for overall accesses
system.l2.demand_avg_mshr_miss_latency::.cpu.inst 72659.701493                       # average overall mshr miss latency
system.l2.demand_avg_mshr_miss_latency::.cpu.data 78499.746810                       # average overall mshr miss latency
system.l2.demand_avg_mshr_miss_latency::total 78402.330329                       # average overall mshr miss latency
system.l2.overall_avg_mshr_miss_latency::.cpu.inst 72659.701493                       # average overall mshr miss latency
system.l2.overall_avg_mshr_miss_latency::.cpu.data 78499.746810                       # average overall mshr miss latency
system.l2.overall_avg_mshr_miss_latency::total 78402.330329                       # average overall mshr miss latency
system.l2.replacements                           3699                       # number of replacements
system.l2.WritebackDirty_hits::.writebacks        30692                       # number of WritebackDirty hits
system.l2.WritebackDirty_hits::total            30692                       # number of WritebackDirty hits
system.l2.WritebackDirty_accesses::.writebacks        30692                       # number of WritebackDirty accesses(hits+misses)
system.l2.WritebackDirty_accesses::total        30692                       # number of WritebackDirty accesses(hits+misses)
system.l2.WritebackClean_hits::.writebacks       946860                       # number of WritebackClean hits
system.l2.WritebackClean_hits::total           946860                       # number of WritebackClean hits
system.l2.WritebackClean_accesses::.writebacks       946860                       # number of WritebackClean accesses(hits+misses)
system.l2.WritebackClean_accesses::total       946860                       # number of WritebackClean accesses(hits+misses)
system.l2.ReadExReq_misses::.cpu.data           19412                       # number of ReadExReq misses
system.l2.ReadExReq_misses::total               19412                       # number of ReadExReq misses
system.l2.ReadExReq_miss_latency::.cpu.data   1717212500                       # number of ReadExReq miss cycles
system.l2.ReadExReq_miss_latency::total    1717212500                       # number of ReadExReq miss cycles
system.l2.ReadExReq_accesses::.cpu.data         19412                       # number of ReadExReq accesses(hits+misses)
system.l2.ReadExReq_accesses::total             19412                       # number of ReadExReq accesses(hits+misses)
system.l2.ReadExReq_miss_rate::.cpu.data            1                       # miss rate for ReadExReq accesses
system.l2.ReadExReq_miss_rate::total                1                       # miss rate for ReadExReq accesses
system.l2.ReadExReq_avg_miss_latency::.cpu.data 88461.389862                       # average ReadExReq miss latency
system.l2.ReadExReq_avg_miss_latency::total 88461.389862                       # average ReadExReq miss latency
system.l2.ReadExReq_mshr_misses::.cpu.data        19412                       # number of ReadExReq MSHR misses
system.l2.ReadExReq_mshr_misses::total          19412                       # number of ReadExReq MSHR misses
system.l2.ReadExReq_mshr_miss_latency::.cpu.data   1523092500                       # number of ReadExReq MSHR miss cycles
system.l2.ReadExReq_mshr_miss_latency::total   1523092500                       # number of ReadExReq MSHR miss cycles
system.l2.ReadExReq_mshr_miss_rate::.cpu.data            1                       # mshr miss rate for ReadExReq accesses
system.l2.ReadExReq_mshr_miss_rate::total            1                       # mshr miss rate for ReadExReq accesses
system.l2.ReadExReq_avg_mshr_miss_latency::.cpu.data 78461.389862                       # average ReadExReq mshr miss latency
system.l2.ReadExReq_avg_mshr_miss_latency::total 78461.389862                       # average ReadExReq mshr miss latency
system.l2.ReadCleanReq_hits::.cpu.inst         947270                       # number of ReadCleanReq hits
system.l2.ReadCleanReq_hits::total             947270                       # number of ReadCleanReq hits
system.l2.ReadCleanReq_misses::.cpu.inst          335                       # number of ReadCleanReq misses
system.l2.ReadCleanReq_misses::total              335                       # number of ReadCleanReq misses
system.l2.ReadCleanReq_miss_latency::.cpu.inst     27691000                       # number of ReadCleanReq miss cycles
system.l2.ReadCleanReq_miss_latency::total     27691000                       # number of ReadCleanReq miss cycles
system.l2.ReadCleanReq_accesses::.cpu.inst       947605                       # number of ReadCleanReq accesses(hits+misses)
system.l2.ReadCleanReq_accesses::total         947605                       # number of ReadCleanReq accesses(hits+misses)
system.l2.ReadCleanReq_miss_rate::.cpu.inst     0.000354                       # miss rate for ReadCleanReq accesses
system.l2.ReadCleanReq_miss_rate::total      0.000354                       # miss rate for ReadCleanReq accesses
system.l2.ReadCleanReq_avg_miss_latency::.cpu.inst 82659.701493                       # average ReadCleanReq miss latency
system.l2.ReadCleanReq_avg_miss_latency::total 82659.701493                       # average ReadCleanReq miss latency
system.l2.ReadCleanReq_mshr_misses::.cpu.inst          335                       # number of ReadCleanReq MSHR misses
system.l2.ReadCleanReq_mshr_misses::total          335                       # number of ReadCleanReq MSHR misses
system.l2.ReadCleanReq_mshr_miss_latency::.cpu.inst     24341000                       # number of ReadCleanReq MSHR miss cycles
system.l2.ReadCleanReq_mshr_miss_latency::total     24341000                       # number of ReadCleanReq MSHR miss cycles
system.l2.ReadCleanReq_mshr_miss_rate::.cpu.inst     0.000354                       # mshr miss rate for ReadCleanReq accesses
system.l2.ReadCleanReq_mshr_miss_rate::total     0.000354                       # mshr miss rate for ReadCleanReq accesses
system.l2.ReadCleanReq_avg_mshr_miss_latency::.cpu.inst 72659.701493                       # average ReadCleanReq mshr miss latency
system.l2.ReadCleanReq_avg_mshr_miss_latency::total 72659.701493                       # average ReadCleanReq mshr miss latency
system.l2.ReadSharedReq_hits::.cpu.data         13564                       # number of ReadSharedReq hits
system.l2.ReadSharedReq_hits::total             13564                       # number of ReadSharedReq hits
system.l2.ReadSharedReq_misses::.cpu.data          340                       # number of ReadSharedReq misses
system.l2.ReadSharedReq_misses::total             340                       # number of ReadSharedReq misses
system.l2.ReadSharedReq_miss_latency::.cpu.data     30758000                       # number of ReadSharedReq miss cycles
system.l2.ReadSharedReq_miss_latency::total     30758000                       # number of ReadSharedReq miss cycles
system.l2.ReadSharedReq_accesses::.cpu.data        13904                       # number of ReadSharedReq accesses(hits+misses)
system.l2.ReadSharedReq_accesses::total         13904                       # number of ReadSharedReq accesses(hits+misses)
system.l2.ReadSharedReq_miss_rate::.cpu.data     0.024453                       # miss rate for ReadSharedReq accesses
system.l2.ReadSharedReq_miss_rate::total     0.024453                       # miss rate for ReadSharedReq accesses
system.l2.ReadSharedReq_avg_miss_latency::.cpu.data 90464.705882                       # average ReadSharedReq miss latency
system.l2.ReadSharedReq_avg_miss_latency::total 90464.705882                       # average ReadSharedReq miss latency
system.l2.ReadSharedReq_mshr_hits::.cpu.data            4                       # number of ReadSharedReq MSHR hits
system.l2.ReadSharedReq_mshr_hits::total            4                       # number of ReadSharedReq MSHR hits
system.l2.ReadSharedReq_mshr_misses::.cpu.data          336                       # number of ReadSharedReq MSHR misses
system.l2.ReadSharedReq_mshr_misses::total          336                       # number of ReadSharedReq MSHR misses
system.l2.ReadSharedReq_mshr_miss_latency::.cpu.data     27120500                       # number of ReadSharedReq MSHR miss cycles
system.l2.ReadSharedReq_mshr_miss_latency::total     27120500                       # number of ReadSharedReq MSHR miss cycles
system.l2.ReadSharedReq_mshr_miss_rate::.cpu.data     0.024166                       # mshr miss rate for ReadSharedReq accesses
system.l2.ReadSharedReq_mshr_miss_rate::total     0.024166                       # mshr miss rate for ReadSharedReq accesses
system.l2.ReadSharedReq_avg_mshr_miss_latency::.cpu.data 80715.773810                       # average ReadSharedReq mshr miss latency
system.l2.ReadSharedReq_avg_mshr_miss_latency::total 80715.773810                       # average ReadSharedReq mshr miss latency
system.l2.tags.pwrStateResidencyTicks::UNDEFINED  66499856000                       # Cumulative time (in ticks) in various power states
system.l2.tags.tagsinuse                 13127.566675                       # Cycle average of tags in use
system.l2.tags.total_refs                     1960568                       # Total number of references to valid blocks.
system.l2.tags.sampled_refs                     20083                       # Sample count of references to valid blocks.
system.l2.tags.avg_refs                     97.623263                       # Average number of references to valid blocks.
system.l2.tags.warmup_cycle                     82000                       # Cycle when the warmup percentage was hit.
system.l2.tags.occ_blocks::.cpu.inst       211.805170                       # Average occupied blocks per requestor
system.l2.tags.occ_blocks::.cpu.data     12915.761505                       # Average occupied blocks per requestor
system.l2.tags.occ_percent::.cpu.inst        0.012928                       # Average percentage of cache occupancy
system.l2.tags.occ_percent::.cpu.data        0.788316                       # Average percentage of cache occupancy
system.l2.tags.occ_percent::total            0.801243                       # Average percentage of cache occupancy
system.l2.tags.occ_task_id_blocks::1024         16384                       # Occupied blocks per task id
system.l2.tags.age_task_id_blocks_1024::0            1                       # Occupied blocks per task id
system.l2.tags.age_task_id_blocks_1024::1           15                       # Occupied blocks per task id
system.l2.tags.age_task_id_blocks_1024::2          174                       # Occupied blocks per task id
system.l2.tags.age_task_id_blocks_1024::3         1638                       # Occupied blocks per task id
system.l2.tags.age_task_id_blocks_1024::4        14556                       # Occupied blocks per task id
system.l2.tags.occ_task_id_percent::1024            1                       # Percentage of cache occupancy per task id
system.l2.tags.tag_accesses                  15704659                       # Number of tag accesses
system.l2.tags.data_accesses                 15704659                       # Number of data accesses
system.cpu_voltage_domain.voltage                   1                       # Voltage in Volts
system.mem_ctrls.pwrStateResidencyTicks::UNDEFINED  66499856000                       # Cumulative time (in ticks) in various power states
system.mem_ctrls.bytes_read::.cpu.inst          42880                       # Number of bytes read from this memory
system.mem_ctrls.bytes_read::.cpu.data        2527744                       # Number of bytes read from this memory
system.mem_ctrls.bytes_read::total            2570624                       # Number of bytes read from this memory
system.mem_ctrls.bytes_inst_read::.cpu.inst        42880                       # Number of instructions bytes read from this memory
system.mem_ctrls.bytes_inst_read::total         42880                       # Number of instructions bytes read from this memory
system.mem_ctrls.bytes_written::.writebacks       426112                       # Number of bytes written to this memory
system.mem_ctrls.bytes_written::total          426112                       # Number of bytes written to this memory
system.mem_ctrls.num_reads::.cpu.inst             335                       # Number of read requests responded to by this memory
system.mem_ctrls.num_reads::.cpu.data           19748                       # Number of read requests responded to by this memory
system.mem_ctrls.num_reads::total               20083                       # Number of read requests responded to by this memory
system.mem_ctrls.num_writes::.writebacks         3329                       # Number of write requests responded to by this memory
system.mem_ctrls.num_writes::total               3329                       # Number of write requests responded to by this memory
system.mem_ctrls.bw_read::.cpu.inst            644813                       # Total read bandwidth from this memory (bytes/s)
system.mem_ctrls.bw_read::.cpu.data          38011270                       # Total read bandwidth from this memory (bytes/s)
system.mem_ctrls.bw_read::total              38656084                       # Total read bandwidth from this memory (bytes/s)
system.mem_ctrls.bw_inst_read::.cpu.inst       644813                       # Instruction read bandwidth from this memory (bytes/s)
system.mem_ctrls.bw_inst_read::total           644813                       # Instruction read bandwidth from this memory (bytes/s)
system.mem_ctrls.bw_write::.writebacks        6407713                       # Write bandwidth from this memory (bytes/s)
system.mem_ctrls.bw_write::total              6407713                       # Write bandwidth from this memory (bytes/s)
system.mem_ctrls.bw_total::.writebacks        6407713                       # Total bandwidth to/from this memory (bytes/s)
system.mem_ctrls.bw_total::.cpu.inst           644813                       # Total bandwidth to/from this memory (bytes/s)
system.mem_ctrls.bw_total::.cpu.data         38011270                       # Total bandwidth to/from this memory (bytes/s)
system.mem_ctrls.bw_total::total             45063797                       # Total bandwidth to/from this memory (bytes/s)
system.mem_ctrls.avgPriority_.writebacks::samples      6658.00                       # Average QoS priority value for accepted requests
system.mem_ctrls.avgPriority_.cpu.inst::samples       670.00                       # Average QoS priority value for accepted requests
system.mem_ctrls.avgPriority_.cpu.data::samples     39496.00                       # Average QoS priority value for accepted requests
system.mem_ctrls.priorityMinLatency      0.000000018750                       # per QoS priority minimum request to response latency (s)
system.mem_ctrls.priorityMaxLatency      0.016525501500                       # per QoS priority maximum request to response latency (s)
system.mem_ctrls.numReadWriteTurnArounds          368                       # Number of turnarounds from READ to WRITE
system.mem_ctrls.numWriteReadTurnArounds          368                       # Number of turnarounds from WRITE to READ
system.mem_ctrls.numStayReadState               80630                       # Number of times bus staying in READ state
system.mem_ctrls.numStayWriteState               6286                       # Number of times bus staying in WRITE state
system.mem_ctrls.readReqs                       20083                       # Number of read requests accepted
system.mem_ctrls.writeReqs                       3329                       # Number of write requests accepted
system.mem_ctrls.readBursts                     40166                       # Number of DRAM read bursts, including those serviced by the write queue
system.mem_ctrls.writeBursts                     6658                       # Number of DRAM write bursts, including those merged in the write queue
system.mem_ctrls.servicedByWrQ                      0                       # Number of DRAM read bursts serviced by the write queue
system.mem_ctrls.mergedWrBursts                     0                       # Number of DRAM write bursts merged with an existing one
system.mem_ctrls.neitherReadNorWriteReqs            0                       # Number of requests that are neither read nor write
system.mem_ctrls.perBankRdBursts::0              2494                       # Per bank write bursts
system.mem_ctrls.perBankRdBursts::1              2384                       # Per bank write bursts
system.mem_ctrls.perBankRdBursts::2              2366                       # Per bank write bursts
system.mem_ctrls.perBankRdBursts::3              2652                       # Per bank write bursts
system.mem_ctrls.perBankRdBursts::4              2706                       # Per bank write bursts
system.mem_ctrls.perBankRdBursts::5              2464                       # Per bank write bursts
system.mem_ctrls.perBankRdBursts::6              2442                       # Per bank write bursts
system.mem_ctrls.perBankRdBursts::7              2484                       # Per bank write bursts
system.mem_ctrls.perBankRdBursts::8              2476                       # Per bank write bursts
system.mem_ctrls.perBankRdBursts::9              2522                       # Per bank write bursts
system.mem_ctrls.perBankRdBursts::10             2512                       # Per bank write bursts
system.mem_ctrls.perBankRdBursts::11             2534                       # Per bank write bursts
system.mem_ctrls.perBankRdBursts::12             2538                       # Per bank write bursts
system.mem_ctrls.perBankRdBursts::13             2486                       # Per bank write bursts
system.mem_ctrls.perBankRdBursts::14             2590                       # Per bank write bursts
system.mem_ctrls.perBankRdBursts::15             2516                       # Per bank write bursts
system.mem_ctrls.perBankWrBursts::0               367                       # Per bank write bursts
system.mem_ctrls.perBankWrBursts::1               298                       # Per bank write bursts
system.mem_ctrls.perBankWrBursts::2               294                       # Per bank write bursts
system.mem_ctrls.perBankWrBursts::3               502                       # Per bank write bursts
system.mem_ctrls.perBankWrBursts::4               628                       # Per bank write bursts
system.mem_ctrls.perBankWrBursts::5               414                       # Per bank write bursts
system.mem_ctrls.perBankWrBursts::6               394                       # Per bank write bursts
system.mem_ctrls.perBankWrBursts::7               412                       # Per bank write bursts
system.mem_ctrls.perBankWrBursts::8               402                       # Per bank write bursts
system.mem_ctrls.perBankWrBursts::9               420                       # Per bank write bursts
system.mem_ctrls.perBankWrBursts::10              420                       # Per bank write bursts
system.mem_ctrls.perBankWrBursts::11              404                       # Per bank write bursts
system.mem_ctrls.perBankWrBursts::12              406                       # Per bank write bursts
system.mem_ctrls.perBankWrBursts::13              410                       # Per bank write bursts
system.mem_ctrls.perBankWrBursts::14              448                       # Per bank write bursts
system.mem_ctrls.perBankWrBursts::15              418                       # Per bank write bursts
system.mem_ctrls.avgRdQLen                       2.01                       # Average read queue length when enqueuing
system.mem_ctrls.avgWrQLen                      14.12                       # Average write queue length when enqueuing
system.mem_ctrls.totQLat                    642331500                       # Total ticks spent queuing
system.mem_ctrls.totBusLat                  200830000                       # Total ticks spent in databus transfers
system.mem_ctrls.totMemAccLat              1395444000                       # Total ticks spent from burst creation until serviced by the DRAM
system.mem_ctrls.avgQLat                     15991.92                       # Average queueing delay per DRAM burst
system.mem_ctrls.avgBusLat                    5000.00                       # Average bus latency per DRAM burst
system.mem_ctrls.avgMemAccLat                34741.92                       # Average memory access latency per DRAM burst
system.mem_ctrls.numRdRetry                         0                       # Number of times read queue was full causing retry
system.mem_ctrls.numWrRetry                         0                       # Number of times write queue was full causing retry
system.mem_ctrls.readRowHits                    28482                       # Number of row buffer hits during reads
system.mem_ctrls.writeRowHits                    5715                       # Number of row buffer hits during writes
system.mem_ctrls.readRowHitRate                 70.91                       # Row buffer hit rate for reads
system.mem_ctrls.writeRowHitRate                85.84                       # Row buffer hit rate for writes
system.mem_ctrls.readPktSize::0                     0                       # Read request sizes (log2)
system.mem_ctrls.readPktSize::1                     0                       # Read request sizes (log2)
system.mem_ctrls.readPktSize::2                     0                       # Read request sizes (log2)
system.mem_ctrls.readPktSize::3                     0                       # Read request sizes (log2)
system.mem_ctrls.readPktSize::4                     0                       # Read request sizes (log2)
system.mem_ctrls.readPktSize::5                     0                       # Read request sizes (log2)
system.mem_ctrls.readPktSize::6                 40166                       # Read request sizes (log2)
system.mem_ctrls.writePktSize::0                    0                       # Write request sizes (log2)
system.mem_ctrls.writePktSize::1                    0                       # Write request sizes (log2)
system.mem_ctrls.writePktSize::2                    0                       # Write request sizes (log2)
system.mem_ctrls.writePktSize::3                    0                       # Write request sizes (log2)
system.mem_ctrls.writePktSize::4                    0                       # Write request sizes (log2)
system.mem_ctrls.writePktSize::5                    0                       # Write request sizes (log2)
system.mem_ctrls.writePktSize::6                 6658                       # Write request sizes (log2)
system.mem_ctrls.rdQLenPdf::0                   19983                       # What read queue length does an incoming req see
system.mem_ctrls.rdQLenPdf::1                   19987                       # What read queue length does an incoming req see
system.mem_ctrls.rdQLenPdf::2                      97                       # What read queue length does an incoming req see
system.mem_ctrls.rdQLenPdf::3                      94                       # What read queue length does an incoming req see
system.mem_ctrls.rdQLenPdf::4                       3                       # What read queue length does an incoming req see
system.mem_ctrls.rdQLenPdf::5                       2                       # What read queue length does an incoming req see
system.mem_ctrls.rdQLenPdf::6                       0                       # What read queue length does an incoming req see
system.mem_ctrls.rdQLenPdf::7                       0                       # What read queue length does an incoming req see
system.mem_ctrls.rdQLenPdf::8                       0                       # What read queue length does an incoming req see
system.mem_ctrls.rdQLenPdf::9                       0                       # What read queue length does an incoming req see
system.mem_ctrls.rdQLenPdf::10                      0                       # What read queue length does an incoming req see
system.mem_ctrls.rdQLenPdf::11                      0                       # What read queue length does an incoming req see
system.mem_ctrls.rdQLenPdf::12                      0                       # What read queue length does an incoming req see
system.mem_ctrls.rdQLenPdf::13                      0                       # What read queue length does an incoming req see
system.mem_ctrls.rdQLenPdf::14                      0                       # What read queue length does an incoming req see
system.mem_ctrls.rdQLenPdf::15                      0                       # What read queue length does an incoming req see
system.mem_ctrls.rdQLenPdf::16                      0                       # What read queue length does an incoming req see
system.mem_ctrls.rdQLenPdf::17                      0                       # What read queue length does an incoming req see
system.mem_ctrls.rdQLenPdf::18                      0                       # What read queue length does an incoming req see
system.mem_ctrls.rdQLenPdf::19                      0                       # What read queue length does an incoming req see
system.mem_ctrls.rdQLenPdf::20                      0                       # What read queue length does an incoming req see
system.mem_ctrls.rdQLenPdf::21                      0                       # What read queue length does an incoming req see
system.mem_ctrls.rdQLenPdf::22                      0                       # What read queue length does an incoming req see
system.mem_ctrls.rdQLenPdf::23                      0                       # What read queue length does an incoming req see
system.mem_ctrls.rdQLenPdf::24                      0                       # What read queue length does an incoming req see
system.mem_ctrls.rdQLenPdf::25                      0                       # What read queue length does an incoming req see
system.mem_ctrls.rdQLenPdf::26                      0                       # What read queue length does an incoming req see
system.mem_ctrls.rdQLenPdf::27                      0                       # What read queue length does an incoming req see
system.mem_ctrls.rdQLenPdf::28                      0                       # What read queue length does an incoming req see
system.mem_ctrls.rdQLenPdf::29                      0                       # What read queue length does an incoming req see
system.mem_ctrls.rdQLenPdf::30                      0                       # What read queue length does an incoming req see
system.mem_ctrls.rdQLenPdf::31                      0                       # What read queue length does an incoming req see
system.mem_ctrls.wrQLenPdf::0                       1                       # What write queue length does an incoming req see
system.mem_ctrls.wrQLenPdf::1                       1                       # What write queue length does an incoming req see
system.mem_ctrls.wrQLenPdf::2                       1                       # What write queue length does an incoming req see
system.mem_ctrls.wrQLenPdf::3                       1                       # What write queue length does an incoming req see
system.mem_ctrls.wrQLenPdf::4                       1                       # What write queue length does an incoming req see
system.mem_ctrls.wrQLenPdf::5                       1                       # What write queue length does an incoming req see
system.mem_ctrls.wrQLenPdf::6                       1                       # What write queue length does an incoming req see
system.mem_ctrls.wrQLenPdf::7                       1                       # What write queue length does an incoming req see
system.mem_ctrls.wrQLenPdf::8                       1                       # What write queue length does an incoming req see
system.mem_ctrls.wrQLenPdf::9                       1                       # What write queue length does an incoming req see
system.mem_ctrls.wrQLenPdf::10                      1                       # What write queue length does an incoming req see
system.mem_ctrls.wrQLenPdf::11                      1                       # What write queue length does an incoming req see
system.mem_ctrls.wrQLenPdf::12                      1                       # What write queue length does an incoming req see
system.mem_ctrls.wrQLenPdf::13                      1                       # What write queue length does an incoming req see
system.mem_ctrls.wrQLenPdf::14                      1                       # What write queue length does an incoming req see
system.mem_ctrls.wrQLenPdf::15                    369                       # What write queue length does an incoming req see
system.mem_ctrls.wrQLenPdf::16                    369                       # What write queue length does an incoming req see
system.mem_ctrls.wrQLenPdf::17                    369                       # What write queue length does an incoming req see
system.mem_ctrls.wrQLenPdf::18                    369                       # What write queue length does an incoming req see
system.mem_ctrls.wrQLenPdf::19                    369                       # What write queue length does an incoming req see
system.mem_ctrls.wrQLenPdf::20                    370                       # What write queue length does an incoming req see
system.mem_ctrls.wrQLenPdf::21                    369                       # What write queue length does an incoming req see
system.mem_ctrls.wrQLenPdf::22                    368                       # What write queue length does an incoming req see
system.mem_ctrls.wrQLenPdf::23                    369                       # What write queue length does an incoming req see
system.mem_ctrls.wrQLenPdf::24                    369                       # What write queue length does an incoming req see
system.mem_ctrls.wrQLenPdf::25                    368                       # What write queue length does an incoming req see
system.mem_ctrls.wrQLenPdf::26                    369                       # What write queue length does an incoming req see
system.mem_ctrls.wrQLenPdf::27                    370                       # What write queue length does an incoming req see
system.mem_ctrls.wrQLenPdf::28                    370                       # What write queue length does an incoming req see
system.mem_ctrls.wrQLenPdf::29                    370                       # What write queue length does an incoming req see
system.mem_ctrls.wrQLenPdf::30                    369                       # What write queue length does an incoming req see
system.mem_ctrls.wrQLenPdf::31                    368                       # What write queue length does an incoming req see
system.mem_ctrls.wrQLenPdf::32                    368                       # What write queue length does an incoming req see
system.mem_ctrls.wrQLenPdf::33                      1                       # What write queue length does an incoming req see
system.mem_ctrls.wrQLenPdf::34                      0                       # What write queue length does an incoming req see
system.mem_ctrls.wrQLenPdf::35                      0                       # What write queue length does an incoming req see
system.mem_ctrls.wrQLenPdf::36                      0                       # What write queue length does an incoming req see
system.mem_ctrls.wrQLenPdf::37                      0                       # What write queue length does an incoming req see
system.mem_ctrls.wrQLenPdf::38                      0                       # What write queue length does an incoming req see
system.mem_ctrls.wrQLenPdf::39                      0                       # What write queue length does an incoming req see
system.mem_ctrls.wrQLenPdf::40                      0                       # What write queue length does an incoming req see
system.mem_ctrls.wrQLenPdf::41                      0                       # What write queue length does an incoming req see
system.mem_ctrls.wrQLenPdf::42                      0                       # What write queue length does an incoming req see
system.mem_ctrls.wrQLenPdf::43                      0                       # What write queue length does an incoming req see
system.mem_ctrls.wrQLenPdf::44                      0                       # What write queue length does an incoming req see
system.mem_ctrls.wrQLenPdf::45                      0                       # What write queue length does an incoming req see
system.mem_ctrls.wrQLenPdf::46                      0                       # What write queue length does an incoming req see
system.mem_ctrls.wrQLenPdf::47                      0                       # What write queue length does an incoming req see
system.mem_ctrls.wrQLenPdf::48                      0                       # What write queue length does an incoming req see
system.mem_ctrls.wrQLenPdf::49                      0                       # What write queue length does an incoming req see
system.mem_ctrls.wrQLenPdf::50                      0                       # What write queue length does an incoming req see
system.mem_ctrls.wrQLenPdf::51                      0                       # What write queue length does an incoming req see
system.mem_ctrls.wrQLenPdf::52                      0                       # What write queue length does an incoming req see
system.mem_ctrls.wrQLenPdf::53                      0                       # What write queue length does an incoming req see
system.mem_ctrls.wrQLenPdf::54                      0                       # What write queue length does an incoming req see
system.mem_ctrls.wrQLenPdf::55                      0                       # What write queue length does an incoming req see
system.mem_ctrls.wrQLenPdf::56                      0                       # What write queue length does an incoming req see
system.mem_ctrls.wrQLenPdf::57                      0                       # What write queue length does an incoming req see
system.mem_ctrls.wrQLenPdf::58                      0                       # What write queue length does an incoming req see
system.mem_ctrls.wrQLenPdf::59                      0                       # What write queue length does an incoming req see
system.mem_ctrls.wrQLenPdf::60                      0                       # What write queue length does an incoming req see
system.mem_ctrls.wrQLenPdf::61                      0                       # What write queue length does an incoming req see
system.mem_ctrls.wrQLenPdf::62                      0                       # What write queue length does an incoming req see
system.mem_ctrls.wrQLenPdf::63                      0                       # What write queue length does an incoming req see
system.mem_ctrls.bytesPerActivate::samples        12605                       # Bytes accessed per row activation
system.mem_ctrls.bytesPerActivate::mean    237.625069                       # Bytes accessed per row activation
system.mem_ctrls.bytesPerActivate::gmean   199.338271                       # Bytes accessed per row activation
system.mem_ctrls.bytesPerActivate::stdev   171.291525                       # Bytes accessed per row activation
system.mem_ctrls.bytesPerActivate::0-127           35      0.28%      0.28% # Bytes accessed per row activation
system.mem_ctrls.bytesPerActivate::128-255         6773     53.73%     54.01% # Bytes accessed per row activation
system.mem_ctrls.bytesPerActivate::256-383         3478     27.59%     81.60% # Bytes accessed per row activation
system.mem_ctrls.bytesPerActivate::384-511         1044      8.28%     89.88% # Bytes accessed per row activation
system.mem_ctrls.bytesPerActivate::512-639          692      5.49%     95.37% # Bytes accessed per row activation
system.mem_ctrls.bytesPerActivate::640-767          280      2.22%     97.60% # Bytes accessed per row activation
system.mem_ctrls.bytesPerActivate::768-895           51      0.40%     98.00% # Bytes accessed per row activation
system.mem_ctrls.bytesPerActivate::896-1023           49      0.39%     98.39% # Bytes accessed per row activation
system.mem_ctrls.bytesPerActivate::1024-1151          203      1.61%    100.00% # Bytes accessed per row activation
system.mem_ctrls.bytesPerActivate::total        12605                       # Bytes accessed per row activation
system.mem_ctrls.rdPerTurnAround::samples          368                       # Reads before turning the bus around for writes
system.mem_ctrls.rdPerTurnAround::mean     109.130435                       # Reads before turning the bus around for writes
system.mem_ctrls.rdPerTurnAround::gmean     20.121915                       # Reads before turning the bus around for writes
system.mem_ctrls.rdPerTurnAround::stdev   1494.478676                       # Reads before turning the bus around for writes
system.mem_ctrls.rdPerTurnAround::0-1023          365     99.18%     99.18% # Reads before turning the bus around for writes
system.mem_ctrls.rdPerTurnAround::1024-2047            2      0.54%     99.73% # Reads before turning the bus around for writes
system.mem_ctrls.rdPerTurnAround::27648-28671            1      0.27%    100.00% # Reads before turning the bus around for writes
system.mem_ctrls.rdPerTurnAround::total           368                       # Reads before turning the bus around for writes
system.mem_ctrls.wrPerTurnAround::samples          368                       # Writes before turning the bus around for reads
system.mem_ctrls.wrPerTurnAround::mean      18.035326                       # Writes before turning the bus around for reads
system.mem_ctrls.wrPerTurnAround::gmean     18.033597                       # Writes before turning the bus around for reads
system.mem_ctrls.wrPerTurnAround::stdev      0.258590                       # Writes before turning the bus around for reads
system.mem_ctrls.wrPerTurnAround::18              361     98.10%     98.10% # Writes before turning the bus around for reads
system.mem_ctrls.wrPerTurnAround::19                1      0.27%     98.37% # Writes before turning the bus around for reads
system.mem_ctrls.wrPerTurnAround::20                6      1.63%    100.00% # Writes before turning the bus around for reads
system.mem_ctrls.wrPerTurnAround::total           368                       # Writes before turning the bus around for reads
system.mem_ctrls.bytesReadDRAM                2570624                       # Total number of bytes read from DRAM
[...]
system.cpu.icache.ReadReq_mshr_misses::total       947605                       # number of ReadReq MSHR misses
system.cpu.icache.ReadReq_mshr_miss_latency::.cpu.inst  11540734500                       # number of ReadReq MSHR miss cycles
system.cpu.icache.ReadReq_mshr_miss_latency::total  11540734500                       # number of ReadReq MSHR miss cycles
system.cpu.icache.ReadReq_mshr_miss_rate::.cpu.inst     0.035234                       # mshr miss rate for ReadReq accesses
system.cpu.icache.ReadReq_mshr_miss_rate::total     0.035234                       # mshr miss rate for ReadReq accesses
system.cpu.icache.ReadReq_avg_mshr_miss_latency::.cpu.inst 12178.845088                       # average ReadReq mshr miss latency
system.cpu.icache.ReadReq_avg_mshr_miss_latency::total 12178.845088                       # average ReadReq mshr miss latency
system.cpu.icache.tags.pwrStateResidencyTicks::UNDEFINED  66499856000                       # Cumulative time (in ticks) in various power states
system.cpu.icache.tags.tagsinuse           224.937281                       # Cycle average of tags in use
system.cpu.icache.tags.total_refs            26894667                       # Total number of references to valid blocks.
system.cpu.icache.tags.sampled_refs            947605                       # Sample count of references to valid blocks.
system.cpu.icache.tags.avg_refs             28.381728                       # Average number of references to valid blocks.
system.cpu.icache.tags.warmup_cycle             92500                       # Cycle when the warmup percentage was hit.
system.cpu.icache.tags.occ_blocks::.cpu.inst   224.937281                       # Average occupied blocks per requestor
system.cpu.icache.tags.occ_percent::.cpu.inst     0.878661                       # Average percentage of cache occupancy
system.cpu.icache.tags.occ_percent::total     0.878661                       # Average percentage of cache occupancy
system.cpu.icache.tags.occ_task_id_blocks::1024          225                       # Occupied blocks per task id
system.cpu.icache.tags.age_task_id_blocks_1024::0           15                       # Occupied blocks per task id
system.cpu.icache.tags.age_task_id_blocks_1024::2            6                       # Occupied blocks per task id
system.cpu.icache.tags.age_task_id_blocks_1024::4          204                       # Occupied blocks per task id
system.cpu.icache.tags.occ_task_id_percent::1024     0.878906                       # Percentage of cache occupancy per task id
system.cpu.icache.tags.tag_accesses          54736939                       # Number of tag accesses
system.cpu.icache.tags.data_accesses         54736939                       # Number of data accesses
system.cpu.dtb.walker.pwrStateResidencyTicks::UNDEFINED  66499856000                       # Cumulative time (in ticks) in various power states
system.cpu.dtb.stage2_mmu.stage2_tlb.walker.pwrStateResidencyTicks::UNDEFINED  66499856000                       # Cumulative time (in ticks) in various power states
system.cpu.dcache.pwrStateResidencyTicks::UNDEFINED  66499856000                       # Cumulative time (in ticks) in various power states
system.cpu.dcache.demand_hits::.cpu.data     34793216                       # number of demand (read+write) hits
system.cpu.dcache.demand_hits::total         34793216                       # number of demand (read+write) hits
system.cpu.dcache.overall_hits::.cpu.data     34796550                       # number of overall hits
system.cpu.dcache.overall_hits::total        34796550                       # number of overall hits
system.cpu.dcache.demand_misses::.cpu.data        43369                       # number of demand (read+write) misses
system.cpu.dcache.demand_misses::total          43369                       # number of demand (read+write) misses
system.cpu.dcache.overall_misses::.cpu.data        43396                       # number of overall misses
system.cpu.dcache.overall_misses::total         43396                       # number of overall misses
system.cpu.dcache.demand_miss_latency::.cpu.data   2600927000                       # number of demand (read+write) miss cycles
system.cpu.dcache.demand_miss_latency::total   2600927000                       # number of demand (read+write) miss cycles
system.cpu.dcache.overall_miss_latency::.cpu.data   2600927000                       # number of overall miss cycles
system.cpu.dcache.overall_miss_latency::total   2600927000                       # number of overall miss cycles
system.cpu.dcache.demand_accesses::.cpu.data     34836585                       # number of demand (read+write) accesses
system.cpu.dcache.demand_accesses::total     34836585                       # number of demand (read+write) accesses
system.cpu.dcache.overall_accesses::.cpu.data     34839946                       # number of overall (read+write) accesses
system.cpu.dcache.overall_accesses::total     34839946                       # number of overall (read+write) accesses
system.cpu.dcache.demand_miss_rate::.cpu.data     0.001245                       # miss rate for demand accesses
system.cpu.dcache.demand_miss_rate::total     0.001245                       # miss rate for demand accesses
system.cpu.dcache.overall_miss_rate::.cpu.data     0.001246                       # miss rate for overall accesses
system.cpu.dcache.overall_miss_rate::total     0.001246                       # miss rate for overall accesses
system.cpu.dcache.demand_avg_miss_latency::.cpu.data 59972.030713                       # average overall miss latency
system.cpu.dcache.demand_avg_miss_latency::total 59972.030713                       # average overall miss latency
system.cpu.dcache.overall_avg_miss_latency::.cpu.data 59934.717485                       # average overall miss latency
system.cpu.dcache.overall_avg_miss_latency::total 59934.717485                       # average overall miss latency
system.cpu.dcache.blocked_cycles::no_mshrs            0                       # number of cycles access was blocked
system.cpu.dcache.blocked_cycles::no_targets            0                       # number of cycles access was blocked
system.cpu.dcache.blocked::no_mshrs                 0                       # number of cycles access was blocked
system.cpu.dcache.blocked::no_targets               0                       # number of cycles access was blocked
system.cpu.dcache.avg_blocked_cycles::no_mshrs          nan                       # average number of cycles each access was blocked
system.cpu.dcache.avg_blocked_cycles::no_targets          nan                       # average number of cycles each access was blocked
system.cpu.dcache.writebacks::.writebacks        30692                       # number of writebacks
system.cpu.dcache.writebacks::total             30692                       # number of writebacks
system.cpu.dcache.demand_mshr_hits::.cpu.data        10067                       # number of demand (read+write) MSHR hits
system.cpu.dcache.demand_mshr_hits::total        10067                       # number of demand (read+write) MSHR hits
system.cpu.dcache.overall_mshr_hits::.cpu.data        10067                       # number of overall MSHR hits
system.cpu.dcache.overall_mshr_hits::total        10067                       # number of overall MSHR hits
system.cpu.dcache.demand_mshr_misses::.cpu.data        33302                       # number of demand (read+write) MSHR misses
system.cpu.dcache.demand_mshr_misses::total        33302                       # number of demand (read+write) MSHR misses
system.cpu.dcache.overall_mshr_misses::.cpu.data        33316                       # number of overall MSHR misses
system.cpu.dcache.overall_mshr_misses::total        33316                       # number of overall MSHR misses
system.cpu.dcache.demand_mshr_miss_latency::.cpu.data   1939648000                       # number of demand (read+write) MSHR miss cycles
system.cpu.dcache.demand_mshr_miss_latency::total   1939648000                       # number of demand (read+write) MSHR miss cycles
system.cpu.dcache.overall_mshr_miss_latency::.cpu.data   1940383500                       # number of overall MSHR miss cycles
system.cpu.dcache.overall_mshr_miss_latency::total   1940383500                       # number of overall MSHR miss cycles
system.cpu.dcache.demand_mshr_miss_rate::.cpu.data     0.000956                       # mshr miss rate for demand accesses
system.cpu.dcache.demand_mshr_miss_rate::total     0.000956                       # mshr miss rate for demand accesses
system.cpu.dcache.overall_mshr_miss_rate::.cpu.data     0.000956                       # mshr miss rate for overall accesses
system.cpu.dcache.overall_mshr_miss_rate::total     0.000956                       # mshr miss rate for overall accesses
system.cpu.dcache.demand_avg_mshr_miss_latency::.cpu.data 58244.189538                       # average overall mshr miss latency
system.cpu.dcache.demand_avg_mshr_miss_latency::total 58244.189538                       # average overall mshr miss latency
system.cpu.dcache.overall_avg_mshr_miss_latency::.cpu.data 58241.790731                       # average overall mshr miss latency
system.cpu.dcache.overall_avg_mshr_miss_latency::total 58241.790731                       # average overall mshr miss latency
system.cpu.dcache.replacements                  32804                       # number of replacements
system.cpu.dcache.ReadReq_hits::.cpu.data     20610716                       # number of ReadReq hits
system.cpu.dcache.ReadReq_hits::total        20610716                       # number of ReadReq hits
system.cpu.dcache.ReadReq_misses::.cpu.data        15692                       # number of ReadReq misses
system.cpu.dcache.ReadReq_misses::total         15692                       # number of ReadReq misses
system.cpu.dcache.ReadReq_miss_latency::.cpu.data    238963000                       # number of ReadReq miss cycles
system.cpu.dcache.ReadReq_miss_latency::total    238963000                       # number of ReadReq miss cycles
system.cpu.dcache.ReadReq_accesses::.cpu.data     20626408                       # number of ReadReq accesses(hits+misses)
system.cpu.dcache.ReadReq_accesses::total     20626408                       # number of ReadReq accesses(hits+misses)
system.cpu.dcache.ReadReq_miss_rate::.cpu.data     0.000761                       # miss rate for ReadReq accesses
system.cpu.dcache.ReadReq_miss_rate::total     0.000761                       # miss rate for ReadReq accesses
system.cpu.dcache.ReadReq_avg_miss_latency::.cpu.data 15228.332908                       # average ReadReq miss latency
system.cpu.dcache.ReadReq_avg_miss_latency::total 15228.332908                       # average ReadReq miss latency
system.cpu.dcache.ReadReq_mshr_hits::.cpu.data         1802                       # number of ReadReq MSHR hits
system.cpu.dcache.ReadReq_mshr_hits::total         1802                       # number of ReadReq MSHR hits
system.cpu.dcache.ReadReq_mshr_misses::.cpu.data        13890                       # number of ReadReq MSHR misses
system.cpu.dcache.ReadReq_mshr_misses::total        13890                       # number of ReadReq MSHR misses
system.cpu.dcache.ReadReq_mshr_miss_latency::.cpu.data    193317000                       # number of ReadReq MSHR miss cycles
system.cpu.dcache.ReadReq_mshr_miss_latency::total    193317000                       # number of ReadReq MSHR miss cycles
system.cpu.dcache.ReadReq_mshr_miss_rate::.cpu.data     0.000673                       # mshr miss rate for ReadReq accesses
system.cpu.dcache.ReadReq_mshr_miss_rate::total     0.000673                       # mshr miss rate for ReadReq accesses
system.cpu.dcache.ReadReq_avg_mshr_miss_latency::.cpu.data 13917.710583                       # average ReadReq mshr miss latency
system.cpu.dcache.ReadReq_avg_mshr_miss_latency::total 13917.710583                       # average ReadReq mshr miss latency
system.cpu.dcache.WriteReq_hits::.cpu.data     14182500                       # number of WriteReq hits
system.cpu.dcache.WriteReq_hits::total       14182500                       # number of WriteReq hits
system.cpu.dcache.WriteReq_misses::.cpu.data        27677                       # number of WriteReq misses
system.cpu.dcache.WriteReq_misses::total        27677                       # number of WriteReq misses
system.cpu.dcache.WriteReq_miss_latency::.cpu.data   2361964000                       # number of WriteReq miss cycles
system.cpu.dcache.WriteReq_miss_latency::total   2361964000                       # number of WriteReq miss cycles
system.cpu.dcache.WriteReq_accesses::.cpu.data     14210177                       # number of WriteReq accesses(hits+misses)
system.cpu.dcache.WriteReq_accesses::total     14210177                       # number of WriteReq accesses(hits+misses)
system.cpu.dcache.WriteReq_miss_rate::.cpu.data     0.001948                       # miss rate for WriteReq accesses
system.cpu.dcache.WriteReq_miss_rate::total     0.001948                       # miss rate for WriteReq accesses
system.cpu.dcache.WriteReq_avg_miss_latency::.cpu.data 85340.318676                       # average WriteReq miss latency
system.cpu.dcache.WriteReq_avg_miss_latency::total 85340.318676                       # average WriteReq miss latency
system.cpu.dcache.WriteReq_mshr_hits::.cpu.data         8265                       # number of WriteReq MSHR hits
system.cpu.dcache.WriteReq_mshr_hits::total         8265                       # number of WriteReq MSHR hits
system.cpu.dcache.WriteReq_mshr_misses::.cpu.data        19412                       # number of WriteReq MSHR misses
system.cpu.dcache.WriteReq_mshr_misses::total        19412                       # number of WriteReq MSHR misses
system.cpu.dcache.WriteReq_mshr_miss_latency::.cpu.data   1746331000                       # number of WriteReq MSHR miss cycles
system.cpu.dcache.WriteReq_mshr_miss_latency::total   1746331000                       # number of WriteReq MSHR miss cycles
system.cpu.dcache.WriteReq_mshr_miss_rate::.cpu.data     0.001366                       # mshr miss rate for WriteReq accesses
system.cpu.dcache.WriteReq_mshr_miss_rate::total     0.001366                       # mshr miss rate for WriteReq accesses
system.cpu.dcache.WriteReq_avg_mshr_miss_latency::.cpu.data 89961.415619                       # average WriteReq mshr miss latency
system.cpu.dcache.WriteReq_avg_mshr_miss_latency::total 89961.415619                       # average WriteReq mshr miss latency
system.cpu.dcache.SoftPFReq_hits::.cpu.data         3334                       # number of SoftPFReq hits
system.cpu.dcache.SoftPFReq_hits::total          3334                       # number of SoftPFReq hits
system.cpu.dcache.SoftPFReq_misses::.cpu.data           27                       # number of SoftPFReq misses
system.cpu.dcache.SoftPFReq_misses::total           27                       # number of SoftPFReq misses
system.cpu.dcache.SoftPFReq_accesses::.cpu.data         3361                       # number of SoftPFReq accesses(hits+misses)
system.cpu.dcache.SoftPFReq_accesses::total         3361                       # number of SoftPFReq accesses(hits+misses)
system.cpu.dcache.SoftPFReq_miss_rate::.cpu.data     0.008033                       # miss rate for SoftPFReq accesses
system.cpu.dcache.SoftPFReq_miss_rate::total     0.008033                       # miss rate for SoftPFReq accesses
system.cpu.dcache.SoftPFReq_mshr_misses::.cpu.data           14                       # number of SoftPFReq MSHR misses
system.cpu.dcache.SoftPFReq_mshr_misses::total           14                       # number of SoftPFReq MSHR misses
system.cpu.dcache.SoftPFReq_mshr_miss_latency::.cpu.data       735500                       # number of SoftPFReq MSHR miss cycles
system.cpu.dcache.SoftPFReq_mshr_miss_latency::total       735500                       # number of SoftPFReq MSHR miss cycles
system.cpu.dcache.SoftPFReq_mshr_miss_rate::.cpu.data     0.004165                       # mshr miss rate for SoftPFReq accesses
system.cpu.dcache.SoftPFReq_mshr_miss_rate::total     0.004165                       # mshr miss rate for SoftPFReq accesses
system.cpu.dcache.SoftPFReq_avg_mshr_miss_latency::.cpu.data 52535.714286                       # average SoftPFReq mshr miss latency
system.cpu.dcache.SoftPFReq_avg_mshr_miss_latency::total 52535.714286                       # average SoftPFReq mshr miss latency
system.cpu.dcache.LoadLockedReq_hits::.cpu.data        89082                       # number of LoadLockedReq hits
system.cpu.dcache.LoadLockedReq_hits::total        89082                       # number of LoadLockedReq hits
system.cpu.dcache.LoadLockedReq_accesses::.cpu.data        89082                       # number of LoadLockedReq accesses(hits+misses)
system.cpu.dcache.LoadLockedReq_accesses::total        89082                       # number of LoadLockedReq accesses(hits+misses)
system.cpu.dcache.StoreCondReq_hits::.cpu.data        89082                       # number of StoreCondReq hits
system.cpu.dcache.StoreCondReq_hits::total        89082                       # number of StoreCondReq hits
system.cpu.dcache.StoreCondReq_accesses::.cpu.data        89082                       # number of StoreCondReq accesses(hits+misses)
system.cpu.dcache.StoreCondReq_accesses::total        89082                       # number of StoreCondReq accesses(hits+misses)
system.cpu.dcache.tags.pwrStateResidencyTicks::UNDEFINED  66499856000                       # Cumulative time (in ticks) in various power states
system.cpu.dcache.tags.tagsinuse           510.759617                       # Cycle average of tags in use
system.cpu.dcache.tags.total_refs            35008030                       # Total number of references to valid blocks.
system.cpu.dcache.tags.sampled_refs             33316                       # Sample count of references to valid blocks.
system.cpu.dcache.tags.avg_refs           1050.787309                       # Average number of references to valid blocks.
system.cpu.dcache.tags.warmup_cycle            210500                       # Cycle when the warmup percentage was hit.
system.cpu.dcache.tags.occ_blocks::.cpu.data   510.759617                       # Average occupied blocks per requestor
system.cpu.dcache.tags.occ_percent::.cpu.data     0.997577                       # Average percentage of cache occupancy
system.cpu.dcache.tags.occ_percent::total     0.997577                       # Average percentage of cache occupancy
system.cpu.dcache.tags.occ_task_id_blocks::1024          512                       # Occupied blocks per task id
system.cpu.dcache.tags.age_task_id_blocks_1024::0            2                       # Occupied blocks per task id
system.cpu.dcache.tags.age_task_id_blocks_1024::1           27                       # Occupied blocks per task id
system.cpu.dcache.tags.age_task_id_blocks_1024::2          313                       # Occupied blocks per task id
system.cpu.dcache.tags.age_task_id_blocks_1024::3          140                       # Occupied blocks per task id
system.cpu.dcache.tags.age_task_id_blocks_1024::4           30                       # Occupied blocks per task id
system.cpu.dcache.tags.occ_task_id_percent::1024            1                       # Percentage of cache occupancy per task id
system.cpu.dcache.tags.tag_accesses         140105756                       # Number of tag accesses
system.cpu.dcache.tags.data_accesses        140105756                       # Number of data accesses
system.cpu.itb.walker.pwrStateResidencyTicks::UNDEFINED  66499856000                       # Cumulative time (in ticks) in various power states
system.cpu.itb.stage2_mmu.stage2_tlb.walker.pwrStateResidencyTicks::UNDEFINED  66499856000                       # Cumulative time (in ticks) in various power states

---------- End Simulation Statistics   ----------
