
---------- Begin Simulation Statistics ----------
final_tick                               129065884500                       # Number of ticks from beginning of simulation (restored from checkpoints and never reset)
host_inst_rate                                 224153                       # Simulator instruction rate (inst/s)
host_mem_usage                                 690856                       # Number of bytes of host memory used
host_op_rate                                   224161                       # Simulator op (including micro ops) rate (op/s)
host_seconds                                   446.12                       # Real time elapsed on the host
host_tick_rate                              289304951                       # Simulator tick rate (ticks/s)
sim_freq                                 1000000000000                       # Frequency of simulated ticks
sim_insts                                   100000000                       # Number of instructions simulated
sim_ops                                     100003637                       # Number of ops (including micro ops) simulated
sim_seconds                                  0.129066                       # Number of seconds simulated
sim_ticks                                129065884500                       # Number of ticks simulated
system.cpu.branchPred.BTBCorrect                    0                       # Number of correct BTB predictions (this stat may not work properly.
system.cpu.branchPred.BTBHitPct             99.506880                       # BTB Hit Percentage
system.cpu.branchPred.BTBHits                  596896                       # Number of BTB hits
system.cpu.branchPred.BTBLookups               599854                       # Number of BTB lookups
system.cpu.branchPred.RASInCorrect                  7                       # Number of incorrect RAS predictions.
system.cpu.branchPred.condIncorrect               868                       # Number of conditional branches incorrect
system.cpu.branchPred.condPredicted            599932                       # Number of conditional branches predicted
system.cpu.branchPred.indirectHits                164                       # Number of indirect target hits.
system.cpu.branchPred.indirectLookups             371                       # Number of indirect predictor lookups.
system.cpu.branchPred.indirectMisses              207                       # Number of indirect misses.
system.cpu.branchPred.lookups                  602102                       # Number of BP lookups
system.cpu.branchPred.usedRAS                     607                       # Number of times the RAS was used to get a target.
system.cpu.branchPredindirectMispredicted          111                       # Number of mispredicted indirect branches.
system.cpu.committedInsts                   100000000                       # Number of instructions committed
system.cpu.committedOps                     100003637                       # Number of ops (including micro ops) committed
system.cpu.cpi                               2.581318                       # CPI: cycles per instruction
system.cpu.discardedOps                          2674                       # Number of ops (including micro ops) which were discarded before commit
system.cpu.dtb.accesses                             0                       # DTB accesses
system.cpu.dtb.align_faults                         0                       # Number of TLB faults due to alignment restrictions
system.cpu.dtb.domain_faults                        0                       # Number of TLB faults due to domain restrictions
system.cpu.dtb.flush_entries                        0                       # Number of entries that have been flushed from TLB
system.cpu.dtb.flush_tlb                            0                       # Number of times complete TLB was flushed
system.cpu.dtb.flush_tlb_asid                       0                       # Number of times TLB was flushed by ASID
system.cpu.dtb.flush_tlb_mva                        0                       # Number of times TLB was flushed by MVA
system.cpu.dtb.flush_tlb_mva_asid                   0                       # Number of times TLB was flushed by MVA & ASID
system.cpu.dtb.hits                                 0                       # DTB hits
system.cpu.dtb.inst_accesses                        0                       # ITB inst accesses
system.cpu.dtb.inst_hits                            0                       # ITB inst hits
system.cpu.dtb.inst_misses                          0                       # ITB inst misses
system.cpu.dtb.misses                               0                       # DTB misses
system.cpu.dtb.perms_faults                         0                       # Number of TLB faults due to permissions restrictions
system.cpu.dtb.prefetch_faults                      0                       # Number of TLB faults due to prefetch
system.cpu.dtb.read_accesses                        0                       # DTB read accesses
system.cpu.dtb.read_hits                            0                       # DTB read hits
system.cpu.dtb.read_misses                          0                       # DTB read misses
system.cpu.dtb.stage2_mmu.stage2_tlb.accesses            0                       # DTB accesses
system.cpu.dtb.stage2_mmu.stage2_tlb.align_faults            0                       # Number of TLB faults due to alignment restrictions
system.cpu.dtb.stage2_mmu.stage2_tlb.domain_faults            0                       # Number of TLB faults due to domain restrictions
system.cpu.dtb.stage2_mmu.stage2_tlb.flush_entries            0                       # Number of entries that have been flushed from TLB
system.cpu.dtb.stage2_mmu.stage2_tlb.flush_tlb            0                       # Number of times complete TLB was flushed
system.cpu.dtb.stage2_mmu.stage2_tlb.flush_tlb_asid            0                       # Number of times TLB was flushed by ASID
system.cpu.dtb.stage2_mmu.stage2_tlb.flush_tlb_mva            0                       # Number of times TLB was flushed by MVA
system.cpu.dtb.stage2_mmu.stage2_tlb.flush_tlb_mva_asid            0                       # Number of times TLB was flushed by MVA & ASID
system.cpu.dtb.stage2_mmu.stage2_tlb.hits            0                       # DTB hits
system.cpu.dtb.stage2_mmu.stage2_tlb.inst_accesses            0                       # ITB inst accesses
system.cpu.dtb.stage2_mmu.stage2_tlb.inst_hits            0                       # ITB inst hits
system.cpu.dtb.stage2_mmu.stage2_tlb.inst_misses            0                       # ITB inst misses
system.cpu.dtb.stage2_mmu.stage2_tlb.misses            0                       # DTB misses
system.cpu.dtb.stage2_mmu.stage2_tlb.perms_faults            0                       # Number of TLB faults due to permissions restrictions
system.cpu.dtb.stage2_mmu.stage2_tlb.prefetch_faults            0                       # Number of TLB faults due to prefetch
system.cpu.dtb.stage2_mmu.stage2_tlb.read_accesses            0                       # DTB read accesses
system.cpu.dtb.stage2_mmu.stage2_tlb.read_hits            0                       # DTB read hits
system.cpu.dtb.stage2_mmu.stage2_tlb.read_misses            0                       # DTB read misses
system.cpu.dtb.stage2_mmu.stage2_tlb.walker.walkRequestOrigin_Requested::Data            0                       # Table walker requests started/completed, data/inst
system.cpu.dtb.stage2_mmu.stage2_tlb.walker.walkRequestOrigin_Requested::Inst            0                       # Table walker requests started/completed, data/inst
system.cpu.dtb.stage2_mmu.stage2_tlb.walker.walkRequestOrigin_Requested::total            0                       # Table walker requests started/completed, data/inst
system.cpu.dtb.stage2_mmu.stage2_tlb.walker.walkRequestOrigin_Completed::Data            0                       # Table walker requests started/completed, data/inst
system.cpu.dtb.stage2_mmu.stage2_tlb.walker.walkRequestOrigin_Completed::Inst            0                       # Table walker requests started/completed, data/inst
system.cpu.dtb.stage2_mmu.stage2_tlb.walker.walkRequestOrigin_Completed::total            0                       # Table walker requests started/completed, data/inst
system.cpu.dtb.stage2_mmu.stage2_tlb.walker.walkRequestOrigin::total            0                       # Table walker requests started/completed, data/inst
system.cpu.dtb.stage2_mmu.stage2_tlb.walker.walks            0                       # Table walker walks requested
system.cpu.dtb.stage2_mmu.stage2_tlb.write_accesses            0                       # DTB write accesses
system.cpu.dtb.stage2_mmu.stage2_tlb.write_hits            0                       # DTB write hits
system.cpu.dtb.stage2_mmu.stage2_tlb.write_misses            0                       # DTB write misses
system.cpu.dtb.walker.walkRequestOrigin_Requested::Data            0                       # Table walker requests started/completed, data/inst
system.cpu.dtb.walker.walkRequestOrigin_Requested::Inst            0                       # Table walker requests started/completed, data/inst
system.cpu.dtb.walker.walkRequestOrigin_Requested::total            0                       # Table walker requests started/completed, data/inst
system.cpu.dtb.walker.walkRequestOrigin_Completed::Data            0                       # Table walker requests started/completed, data/inst
system.cpu.dtb.walker.walkRequestOrigin_Completed::Inst            0                       # Table walker requests started/completed, data/inst
system.cpu.dtb.walker.walkRequestOrigin_Completed::total            0                       # Table walker requests started/completed, data/inst
system.cpu.dtb.walker.walkRequestOrigin::total            0                       # Table walker requests started/completed, data/inst
system.cpu.dtb.walker.walks                         0                       # Table walker walks requested
system.cpu.dtb.write_accesses                       0                       # DTB write accesses
system.cpu.dtb.write_hits                           0                       # DTB write hits
system.cpu.dtb.write_misses                         0                       # DTB write misses
system.cpu.fetch2.amo_instructions                  0                       # Number of memory atomic instructions successfully decoded
system.cpu.fetch2.fp_instructions                   0                       # Number of floating point instructions successfully decoded
system.cpu.fetch2.int_instructions           49411873                       # Number of integer instructions successfully decoded
system.cpu.fetch2.load_instructions          36901093                       # Number of memory load instructions successfully decoded
system.cpu.fetch2.store_instructions         13094530                       # Number of memory store instructions successfully decoded
system.cpu.fetch2.vec_instructions                  0                       # Number of SIMD instructions successfully decoded
system.cpu.idleCycles                       143240298                       # Total number of cycles that the object has spent stopped
system.cpu.ipc                               0.387399                       # IPC: instructions per cycle
system.cpu.itb.accesses                             0                       # DTB accesses
system.cpu.itb.align_faults                         0                       # Number of TLB faults due to alignment restrictions
system.cpu.itb.domain_faults                        0                       # Number of TLB faults due to domain restrictions
system.cpu.itb.flush_entries                        0                       # Number of entries that have been flushed from TLB
system.cpu.itb.flush_tlb                            0                       # Number of times complete TLB was flushed
system.cpu.itb.flush_tlb_asid                       0                       # Number of times TLB was flushed by ASID
system.cpu.itb.flush_tlb_mva                        0                       # Number of times TLB was flushed by MVA
system.cpu.itb.flush_tlb_mva_asid                   0                       # Number of times TLB was flushed by MVA & ASID
system.cpu.itb.hits                                 0                       # DTB hits
system.cpu.itb.inst_accesses                        0                       # ITB inst accesses
system.cpu.itb.inst_hits                            0                       # ITB inst hits
system.cpu.itb.inst_misses                          0                       # ITB inst misses
system.cpu.itb.misses                               0                       # DTB misses
system.cpu.itb.perms_faults                         0                       # Number of TLB faults due to permissions restrictions
system.cpu.itb.prefetch_faults                      0                       # Number of TLB faults due to prefetch
system.cpu.itb.read_accesses                        0                       # DTB read accesses
system.cpu.itb.read_hits                            0                       # DTB read hits
system.cpu.itb.read_misses                          0                       # DTB read misses
system.cpu.itb.stage2_mmu.stage2_tlb.accesses            0                       # DTB accesses
system.cpu.itb.stage2_mmu.stage2_tlb.align_faults            0                       # Number of TLB faults due to alignment restrictions
system.cpu.itb.stage2_mmu.stage2_tlb.domain_faults            0                       # Number of TLB faults due to domain restrictions
system.cpu.itb.stage2_mmu.stage2_tlb.flush_entries            0                       # Number of entries that have been flushed from TLB
system.cpu.itb.stage2_mmu.stage2_tlb.flush_tlb            0                       # Number of times complete TLB was flushed
system.cpu.itb.stage2_mmu.stage2_tlb.flush_tlb_asid            0                       # Number of times TLB was flushed by ASID
system.cpu.itb.stage2_mmu.stage2_tlb.flush_tlb_mva            0                       # Number of times TLB was flushed by MVA
system.cpu.itb.stage2_mmu.stage2_tlb.flush_tlb_mva_asid            0                       # Number of times TLB was flushed by MVA & ASID
system.cpu.itb.stage2_mmu.stage2_tlb.hits            0                       # DTB hits
system.cpu.itb.stage2_mmu.stage2_tlb.inst_accesses            0                       # ITB inst accesses
system.cpu.itb.stage2_mmu.stage2_tlb.inst_hits            0                       # ITB inst hits
system.cpu.itb.stage2_mmu.stage2_tlb.inst_misses            0                       # ITB inst misses
system.cpu.itb.stage2_mmu.stage2_tlb.misses            0                       # DTB misses
system.cpu.itb.stage2_mmu.stage2_tlb.perms_faults            0                       # Number of TLB faults due to permissions restrictions
system.cpu.itb.stage2_mmu.stage2_tlb.prefetch_faults            0                       # Number of TLB faults due to prefetch
system.cpu.itb.stage2_mmu.stage2_tlb.read_accesses            0                       # DTB read accesses
system.cpu.itb.stage2_mmu.stage2_tlb.read_hits            0                       # DTB read hits
system.cpu.itb.stage2_mmu.stage2_tlb.read_misses            0                       # DTB read misses
system.cpu.itb.stage2_mmu.stage2_tlb.walker.walkRequestOrigin_Requested::Data            0                       # Table walker requests started/completed, data/inst
system.cpu.itb.stage2_mmu.stage2_tlb.walker.walkRequestOrigin_Requested::Inst            0                       # Table walker requests started/completed, data/inst
system.cpu.itb.stage2_mmu.stage2_tlb.walker.walkRequestOrigin_Requested::total            0                       # Table walker requests started/completed, data/inst
system.cpu.itb.stage2_mmu.stage2_tlb.walker.walkRequestOrigin_Completed::Data            0                       # Table walker requests started/completed, data/inst
system.cpu.itb.stage2_mmu.stage2_tlb.walker.walkRequestOrigin_Completed::Inst            0                       # Table walker requests started/completed, data/inst
system.cpu.itb.stage2_mmu.stage2_tlb.walker.walkRequestOrigin_Completed::total            0                       # Table walker requests started/completed, data/inst
system.cpu.itb.stage2_mmu.stage2_tlb.walker.walkRequestOrigin::total            0                       # Table walker requests started/completed, data/inst
system.cpu.itb.stage2_mmu.stage2_tlb.walker.walks            0                       # Table walker walks requested
system.cpu.itb.stage2_mmu.stage2_tlb.write_accesses            0                       # DTB write accesses
system.cpu.itb.stage2_mmu.stage2_tlb.write_hits            0                       # DTB write hits
system.cpu.itb.stage2_mmu.stage2_tlb.write_misses            0                       # DTB write misses
system.cpu.itb.walker.walkRequestOrigin_Requested::Data            0                       # Table walker requests started/completed, data/inst
system.cpu.itb.walker.walkRequestOrigin_Requested::Inst            0                       # Table walker requests started/completed, data/inst
system.cpu.itb.walker.walkRequestOrigin_Requested::total            0                       # Table walker requests started/completed, data/inst
system.cpu.itb.walker.walkRequestOrigin_Completed::Data            0                       # Table walker requests started/completed, data/inst
system.cpu.itb.walker.walkRequestOrigin_Completed::Inst            0                       # Table walker requests started/completed, data/inst
system.cpu.itb.walker.walkRequestOrigin_Completed::total            0                       # Table walker requests started/completed, data/inst
system.cpu.itb.walker.walkRequestOrigin::total            0                       # Table walker requests started/completed, data/inst
system.cpu.itb.walker.walks                         0                       # Table walker walks requested
system.cpu.itb.write_accesses                       0                       # DTB write accesses
system.cpu.itb.write_hits                           0                       # DTB write hits
system.cpu.itb.write_misses                         0                       # DTB write misses
system.cpu.numCycles                        258131769                       # number of cpu cycles simulated
system.cpu.numFetchSuspends                         0                       # Number of times Execute suspended instruction fetching
system.cpu.numWorkItemsCompleted                    0                       # number of work items this cpu completed
system.cpu.numWorkItemsStarted                      0                       # number of work items this cpu started
system.cpu.op_class_0::No_OpClass                   0      0.00%      0.00% # Class of committed instruction
system.cpu.op_class_0::IntAlu                50006957     50.01%     50.01% # Class of committed instruction
system.cpu.op_class_0::IntMult                     85      0.00%     50.01% # Class of committed instruction
system.cpu.op_class_0::IntDiv                       0      0.00%     50.01% # Class of committed instruction
system.cpu.op_class_0::FloatAdd                     0      0.00%     50.01% # Class of committed instruction
system.cpu.op_class_0::FloatCmp                     0      0.00%     50.01% # Class of committed instruction
system.cpu.op_class_0::FloatCvt                     0      0.00%     50.01% # Class of committed instruction
system.cpu.op_class_0::FloatMult                    0      0.00%     50.01% # Class of committed instruction
system.cpu.op_class_0::FloatMultAcc                 0      0.00%     50.01% # Class of committed instruction
system.cpu.op_class_0::FloatDiv                     0      0.00%     50.01% # Class of committed instruction
system.cpu.op_class_0::FloatMisc                    0      0.00%     50.01% # Class of committed instruction
system.cpu.op_class_0::FloatSqrt                    0      0.00%     50.01% # Class of committed instruction
system.cpu.op_class_0::SimdAdd                      0      0.00%     50.01% # Class of committed instruction
system.cpu.op_class_0::SimdAddAcc                   0      0.00%     50.01% # Class of committed instruction
system.cpu.op_class_0::SimdAlu                      0      0.00%     50.01% # Class of committed instruction
system.cpu.op_class_0::SimdCmp                      0      0.00%     50.01% # Class of committed instruction
system.cpu.op_class_0::SimdCvt                      0      0.00%     50.01% # Class of committed instruction
system.cpu.op_class_0::SimdMisc                     0      0.00%     50.01% # Class of committed instruction
system.cpu.op_class_0::SimdMult                     0      0.00%     50.01% # Class of committed instruction
system.cpu.op_class_0::SimdMultAcc                  0      0.00%     50.01% # Class of committed instruction
system.cpu.op_class_0::SimdShift                    0      0.00%     50.01% # Class of committed instruction
system.cpu.op_class_0::SimdShiftAcc                 0      0.00%     50.01% # Class of committed instruction
system.cpu.op_class_0::SimdDiv                      0      0.00%     50.01% # Class of committed instruction
system.cpu.op_class_0::SimdSqrt                     0      0.00%     50.01% # Class of committed instruction
system.cpu.op_class_0::SimdFloatAdd                 0      0.00%     50.01% # Class of committed instruction
system.cpu.op_class_0::SimdFloatAlu                 0      0.00%     50.01% # Class of committed instruction
system.cpu.op_class_0::SimdFloatCmp                 2      0.00%     50.01% # Class of committed instruction
system.cpu.op_class_0::SimdFloatCvt                 0      0.00%     50.01% # Class of committed instruction
system.cpu.op_class_0::SimdFloatDiv                 0      0.00%     50.01% # Class of committed instruction
system.cpu.op_class_0::SimdFloatMisc               22      0.00%     50.01% # Class of committed instruction
system.cpu.op_class_0::SimdFloatMult                0      0.00%     50.01% # Class of committed instruction
system.cpu.op_class_0::SimdFloatMultAcc             0      0.00%     50.01% # Class of committed instruction
system.cpu.op_class_0::SimdFloatSqrt                0      0.00%     50.01% # Class of committed instruction
system.cpu.op_class_0::SimdReduceAdd                0      0.00%     50.01% # Class of committed instruction
system.cpu.op_class_0::SimdReduceAlu                0      0.00%     50.01% # Class of committed instruction
system.cpu.op_class_0::SimdReduceCmp                0      0.00%     50.01% # Class of committed instruction
system.cpu.op_class_0::SimdFloatReduceAdd            0      0.00%     50.01% # Class of committed instruction
system.cpu.op_class_0::SimdFloatReduceCmp            0      0.00%     50.01% # Class of committed instruction
system.cpu.op_class_0::SimdAes                      0      0.00%     50.01% # Class of committed instruction
system.cpu.op_class_0::SimdAesMix                   0      0.00%     50.01% # Class of committed instruction
system.cpu.op_class_0::SimdSha1Hash                 0      0.00%     50.01% # Class of committed instruction
system.cpu.op_class_0::SimdSha1Hash2                0      0.00%     50.01% # Class of committed instruction
system.cpu.op_class_0::SimdSha256Hash               0      0.00%     50.01% # Class of committed instruction
system.cpu.op_class_0::SimdSha256Hash2              0      0.00%     50.01% # Class of committed instruction
system.cpu.op_class_0::SimdShaSigma2                0      0.00%     50.01% # Class of committed instruction
system.cpu.op_class_0::SimdShaSigma3                0      0.00%     50.01% # Class of committed instruction
system.cpu.op_class_0::SimdPredAlu                  0      0.00%     50.01% # Class of committed instruction
system.cpu.op_class_0::MemRead               36900878     36.90%     86.90% # Class of committed instruction
system.cpu.op_class_0::MemWrite              13095693     13.10%    100.00% # Class of committed instruction
system.cpu.op_class_0::FloatMemRead                 0      0.00%    100.00% # Class of committed instruction
system.cpu.op_class_0::FloatMemWrite                0      0.00%    100.00% # Class of committed instruction
system.cpu.op_class_0::IprAccess                    0      0.00%    100.00% # Class of committed instruction
system.cpu.op_class_0::InstPrefetch                 0      0.00%    100.00% # Class of committed instruction
system.cpu.op_class_0::total                100003637                       # Class of committed instruction
system.cpu.tickCycles                       114891471                       # Number of cycles that the object actually ticked
system.cpu.workload.numSyscalls                    18                       # Number of system calls
system.membus.snoop_filter.hit_multi_requests            0                       # Number of requests hitting in the snoop filter with multiple (>1) holders of the requested data.
system.membus.snoop_filter.hit_multi_snoops            0                       # Number of snoops hitting in the snoop filter with multiple (>1) holders of the requested data.
system.membus.snoop_filter.hit_single_requests       727832                       # Number of requests hitting in the snoop filter with a single holder of the requested data.
system.membus.snoop_filter.hit_single_snoops            0                       # Number of snoops hitting in the snoop filter with a single holder of the requested data.
system.membus.snoop_filter.tot_requests       1472175                       # Total number of requests made to the snoop filter.
system.membus.snoop_filter.tot_snoops               0                       # Total number of snoops made to the snoop filter.
system.tol2bus.snoop_filter.hit_multi_requests           44                       # Number of requests hitting in the snoop filter with multiple (>1) holders of the requested data.
system.tol2bus.snoop_filter.hit_multi_snoops            1                       # Number of snoops hitting in the snoop filter with multiple (>1) holders of the requested data.
system.tol2bus.snoop_filter.hit_single_requests       743984                       # Number of requests hitting in the snoop filter with a single holder of the requested data.
system.tol2bus.snoop_filter.hit_single_snoops          126                       # Number of snoops hitting in the snoop filter with a single holder of the requested data.
system.tol2bus.snoop_filter.tot_requests      1488604                       # Total number of requests made to the snoop filter.
system.tol2bus.snoop_filter.tot_snoops            127                       # Total number of snoops made to the snoop filter.
system.membus.pwrStateResidencyTicks::UNDEFINED 129065884500                       # Cumulative time (in ticks) in various power states
system.membus.trans_dist::ReadResp                411                       # Transaction distribution
system.membus.trans_dist::WritebackDirty       727562                       # Transaction distribution
system.membus.trans_dist::CleanEvict              270                       # Transaction distribution
system.membus.trans_dist::ReadExReq            743932                       # Transaction distribution
system.membus.trans_dist::ReadExResp           743932                       # Transaction distribution
system.membus.trans_dist::ReadSharedReq           411                       # Transaction distribution
system.membus.pkt_count_system.l2.mem_side::system.mem_ctrls.port      2216518                       # Packet count per connected master and slave (bytes)
system.membus.pkt_count::total                2216518                       # Packet count per connected master and slave (bytes)
system.membus.pkt_size_system.l2.mem_side::system.mem_ctrls.port    188403840                       # Cumulative packet size per connected master and slave (bytes)
system.membus.pkt_size::total               188403840                       # Cumulative packet size per connected master and slave (bytes)
system.membus.snoops                                0                       # Total snoops (count)
system.membus.snoopTraffic                          0                       # Total snoop traffic (bytes)
system.membus.snoop_fanout::samples            744343                       # Request fanout histogram
system.membus.snoop_fanout::mean                    0                       # Request fanout histogram
system.membus.snoop_fanout::stdev                   0                       # Request fanout histogram
system.membus.snoop_fanout::underflows              0      0.00%      0.00% # Request fanout histogram
system.membus.snoop_fanout::0                  744343    100.00%    100.00% # Request fanout histogram
system.membus.snoop_fanout::1                       0      0.00%    100.00% # Request fanout histogram
system.membus.snoop_fanout::overflows               0      0.00%    100.00% # Request fanout histogram
system.membus.snoop_fanout::min_value               0                       # Request fanout histogram
system.membus.snoop_fanout::max_value               0                       # Request fanout histogram
system.membus.snoop_fanout::total              744343                       # Request fanout histogram
system.membus.respLayer1.occupancy         6925326750                       # Layer occupancy (ticks)
system.membus.respLayer1.utilization              5.4                       # Layer utilization (%)
system.membus.reqLayer0.occupancy          7515942500                       # Layer occupancy (ticks)
system.membus.reqLayer0.utilization               5.8                       # Layer utilization (%)
system.tol2bus.pwrStateResidencyTicks::UNDEFINED 129065884500                       # Cumulative time (in ticks) in various power states
system.tol2bus.trans_dist::ReadResp               689                       # Transaction distribution
system.tol2bus.trans_dist::WritebackDirty      1470998                       # Transaction distribution
system.tol2bus.trans_dist::WritebackClean          464                       # Transaction distribution
system.tol2bus.trans_dist::CleanEvict             480                       # Transaction distribution
system.tol2bus.trans_dist::ReadExReq           743932                       # Transaction distribution
system.tol2bus.trans_dist::ReadExResp          743932                       # Transaction distribution
system.tol2bus.trans_dist::ReadCleanReq           590                       # Transaction distribution
system.tol2bus.trans_dist::ReadSharedReq           99                       # Transaction distribution
system.tol2bus.pkt_count_system.cpu.icache.mem_side::system.l2.cpu_side         1644                       # Packet count per connected master and slave (bytes)
system.tol2bus.pkt_count_system.cpu.dcache.mem_side::system.l2.cpu_side      2231581                       # Packet count per connected master and slave (bytes)
system.tol2bus.pkt_count::total               2233225                       # Packet count per connected master and slave (bytes)
system.tol2bus.pkt_size_system.cpu.icache.mem_side::system.l2.cpu_side       134912                       # Cumulative packet size per connected master and slave (bytes)
system.tol2bus.pkt_size_system.cpu.dcache.mem_side::system.l2.cpu_side    190395776                       # Cumulative packet size per connected master and slave (bytes)
system.tol2bus.pkt_size::total              190530688                       # Cumulative packet size per connected master and slave (bytes)
system.tol2bus.snoops                          727959                       # Total snoops (count)
system.tol2bus.snoopTraffic                  93127936                       # Total snoop traffic (bytes)
system.tol2bus.snoop_fanout::samples          1472580                       # Request fanout histogram
system.tol2bus.snoop_fanout::mean            0.000117                       # Request fanout histogram
system.tol2bus.snoop_fanout::stdev           0.010901                       # Request fanout histogram
system.tol2bus.snoop_fanout::underflows             0      0.00%      0.00% # Request fanout histogram
system.tol2bus.snoop_fanout::0                1472408     99.99%     99.99% # Request fanout histogram
system.tol2bus.snoop_fanout::1                    171      0.01%    100.00% # Request fanout histogram
system.tol2bus.snoop_fanout::2                      1      0.00%    100.00% # Request fanout histogram
system.tol2bus.snoop_fanout::overflows              0      0.00%    100.00% # Request fanout histogram
system.tol2bus.snoop_fanout::min_value              0                       # Request fanout histogram
system.tol2bus.snoop_fanout::max_value              2                       # Request fanout histogram
system.tol2bus.snoop_fanout::total            1472580                       # Request fanout histogram
system.tol2bus.reqLayer0.occupancy         2232102000                       # Layer occupancy (ticks)
system.tol2bus.reqLayer0.utilization              1.7                       # Layer utilization (%)
system.tol2bus.respLayer1.occupancy        1860078997                       # Layer occupancy (ticks)
system.tol2bus.respLayer1.utilization             1.4                       # Layer utilization (%)
system.tol2bus.respLayer0.occupancy           1475000                       # Layer occupancy (ticks)
system.tol2bus.respLayer0.utilization             0.0                       # Layer utilization (%)
system.voltage_domain.voltage                       1                       # Voltage in Volts
system.clk_domain.clock                          1000                       # Clock period in ticks
system.l2.pwrStateResidencyTicks::UNDEFINED 129065884500                       # Cumulative time (in ticks) in various power states
system.l2.demand_hits::.cpu.inst                  257                       # number of demand (read+write) hits
system.l2.demand_hits::.cpu.data                   18                       # number of demand (read+write) hits
system.l2.demand_hits::total                      275                       # number of demand (read+write) hits
system.l2.overall_hits::.cpu.inst                 257                       # number of overall hits
system.l2.overall_hits::.cpu.data                  18                       # number of overall hits
system.l2.overall_hits::total                     275                       # number of overall hits
system.l2.demand_misses::.cpu.inst                333                       # number of demand (read+write) misses
system.l2.demand_misses::.cpu.data             744013                       # number of demand (read+write) misses
system.l2.demand_misses::total                 744346                       # number of demand (read+write) misses
system.l2.overall_misses::.cpu.inst               333                       # number of overall misses
system.l2.overall_misses::.cpu.data            744013                       # number of overall misses
system.l2.overall_misses::total                744346                       # number of overall misses
system.l2.demand_miss_latency::.cpu.inst     27670000                       # number of demand (read+write) miss cycles
system.l2.demand_miss_latency::.cpu.data  69960851500                       # number of demand (read+write) miss cycles
system.l2.demand_miss_latency::total      69988521500                       # number of demand (read+write) miss cycles
system.l2.overall_miss_latency::.cpu.inst     27670000                       # number of overall miss cycles
system.l2.overall_miss_latency::.cpu.data  69960851500                       # number of overall miss cycles
system.l2.overall_miss_latency::total     69988521500                       # number of overall miss cycles
system.l2.demand_accesses::.cpu.inst              590                       # number of demand (read+write) accesses
system.l2.demand_accesses::.cpu.data           744031                       # number of demand (read+write) accesses
system.l2.demand_accesses::total               744621                       # number of demand (read+write) accesses
system.l2.overall_accesses::.cpu.inst             590                       # number of overall (read+write) accesses
system.l2.overall_accesses::.cpu.data          744031                       # number of overall (read+write) accesses
system.l2.overall_accesses::total              744621                       # number of overall (read+write) accesses
system.l2.demand_miss_rate::.cpu.inst        0.564407                       # miss rate for demand accesses
system.l2.demand_miss_rate::.cpu.data        0.999976                       # miss rate for demand accesses
system.l2.demand_miss_rate::total            0.999631                       # miss rate for demand accesses
system.l2.overall_miss_rate::.cpu.inst       0.564407                       # miss rate for overall accesses
system.l2.overall_miss_rate::.cpu.data       0.999976                       # miss rate for overall accesses
system.l2.overall_miss_rate::total           0.999631                       # miss rate for overall accesses
system.l2.demand_avg_miss_latency::.cpu.inst 83093.093093                       # average overall miss latency
system.l2.demand_avg_miss_latency::.cpu.data 94031.759526                       # average overall miss latency
system.l2.demand_avg_miss_latency::total 94026.865866                       # average overall miss latency
system.l2.overall_avg_miss_latency::.cpu.inst 83093.093093                       # average overall miss latency
system.l2.overall_avg_miss_latency::.cpu.data 94031.759526                       # average overall miss latency
system.l2.overall_avg_miss_latency::total 94026.865866                       # average overall miss latency
system.l2.blocked_cycles::no_mshrs                  0                       # number of cycles access was blocked
system.l2.blocked_cycles::no_targets                0                       # number of cycles access was blocked
system.l2.blocked::no_mshrs                         0                       # number of cycles access was blocked
system.l2.blocked::no_targets                       0                       # number of cycles access was blocked
system.l2.avg_blocked_cycles::no_mshrs            nan                       # average number of cycles each access was blocked
system.l2.avg_blocked_cycles::no_targets          nan                       # average number of cycles each access was blocked
system.l2.writebacks::.writebacks              727562                       # number of writebacks
system.l2.writebacks::total                    727562                       # number of writebacks
system.l2.demand_mshr_hits::.cpu.data               3                       # number of demand (read+write) MSHR hits
system.l2.demand_mshr_hits::total                   3                       # number of demand (read+write) MSHR hits
system.l2.overall_mshr_hits::.cpu.data              3                       # number of overall MSHR hits
system.l2.overall_mshr_hits::total                  3                       # number of overall MSHR hits
system.l2.demand_mshr_misses::.cpu.inst           333                       # number of demand (read+write) MSHR misses
system.l2.demand_mshr_misses::.cpu.data        744010                       # number of demand (read+write) MSHR misses
system.l2.demand_mshr_misses::total            744343                       # number of demand (read+write) MSHR misses
system.l2.overall_mshr_misses::.cpu.inst          333                       # number of overall MSHR misses
system.l2.overall_mshr_misses::.cpu.data       744010                       # number of overall MSHR misses
system.l2.overall_mshr_misses::total           744343                       # number of overall MSHR misses
system.l2.demand_mshr_miss_latency::.cpu.inst     24340000                       # number of demand (read+write) MSHR miss cycles
system.l2.demand_mshr_miss_latency::.cpu.data  62520536000                       # number of demand (read+write) MSHR miss cycles
system.l2.demand_mshr_miss_latency::total  62544876000                       # number of demand (read+write) MSHR miss cycles
system.l2.overall_mshr_miss_latency::.cpu.inst     24340000                       # number of overall MSHR miss cycles
system.l2.overall_mshr_miss_latency::.cpu.data  62520536000                       # number of overall MSHR miss cycles
system.l2.overall_mshr_miss_latency::total  62544876000                       # number of overall MSHR miss cycles
system.l2.demand_mshr_miss_rate::.cpu.inst     0.564407                       # mshr miss rate for demand accesses
system.l2.demand_mshr_miss_rate::.cpu.data     0.999972                       # mshr miss rate for demand accesses
system.l2.demand_mshr_miss_rate::total       0.999627                       # mshr miss rate for demand accesses
system.l2.overall_mshr_miss_rate::.cpu.inst     0.564407                       # mshr miss rate for overall accesses
system.l2.overall_mshr_miss_rate::.cpu.data     0.999972                       # mshr miss rate for overall accesses
system.l2.overall_mshr_miss_rate::total      0.999627                       # mshr miss rate for overall accesses
system.l2.demand_avg_mshr_miss_latency::.cpu.inst 73093.093093                       # average overall mshr miss latency
system.l2.demand_avg_mshr_miss_latency::.cpu.data 84031.849034                       # average overall mshr miss latency
system.l2.demand_avg_mshr_miss_latency::total 84026.955315                       # average overall mshr miss latency
system.l2.overall_avg_mshr_miss_latency::.cpu.inst 73093.093093                       # average overall mshr miss latency
system.l2.overall_avg_mshr_miss_latency::.cpu.data 84031.849034                       # average overall mshr miss latency
system.l2.overall_avg_mshr_miss_latency::total 84026.955315                       # average overall mshr miss latency
system.l2.replacements                         727959                       # number of replacements
system.l2.WritebackDirty_hits::.writebacks       743436                       # number of WritebackDirty hits
system.l2.WritebackDirty_hits::total           743436                       # number of WritebackDirty hits
system.l2.WritebackDirty_accesses::.writebacks       743436                       # number of WritebackDirty accesses(hits+misses)
system.l2.WritebackDirty_accesses::total       743436                       # number of WritebackDirty accesses(hits+misses)
system.l2.WritebackClean_hits::.writebacks          431                       # number of WritebackClean hits
system.l2.WritebackClean_hits::total              431                       # number of WritebackClean hits
system.l2.WritebackClean_accesses::.writebacks          431                       # number of WritebackClean accesses(hits+misses)
system.l2.WritebackClean_accesses::total          431                       # number of WritebackClean accesses(hits+misses)
system.l2.ReadExReq_misses::.cpu.data          743932                       # number of ReadExReq misses
system.l2.ReadExReq_misses::total              743932                       # number of ReadExReq misses
system.l2.ReadExReq_miss_latency::.cpu.data  69953588000                       # number of ReadExReq miss cycles
system.l2.ReadExReq_miss_latency::total   69953588000                       # number of ReadExReq miss cycles
system.l2.ReadExReq_accesses::.cpu.data        743932                       # number of ReadExReq accesses(hits+misses)
system.l2.ReadExReq_accesses::total            743932                       # number of ReadExReq accesses(hits+misses)
system.l2.ReadExReq_miss_rate::.cpu.data            1                       # miss rate for ReadExReq accesses
system.l2.ReadExReq_miss_rate::total                1                       # miss rate for ReadExReq accesses
system.l2.ReadExReq_avg_miss_latency::.cpu.data 94032.234129                       # average ReadExReq miss latency
system.l2.ReadExReq_avg_miss_latency::total 94032.234129                       # average ReadExReq miss latency
system.l2.ReadExReq_mshr_misses::.cpu.data       743932                       # number of ReadExReq MSHR misses
system.l2.ReadExReq_mshr_misses::total         743932                       # number of ReadExReq MSHR misses
system.l2.ReadExReq_mshr_miss_latency::.cpu.data  62514268000                       # number of ReadExReq MSHR miss cycles
system.l2.ReadExReq_mshr_miss_latency::total  62514268000                       # number of ReadExReq MSHR miss cycles
system.l2.ReadExReq_mshr_miss_rate::.cpu.data            1                       # mshr miss rate for ReadExReq accesses
system.l2.ReadExReq_mshr_miss_rate::total            1                       # mshr miss rate for ReadExReq accesses
system.l2.ReadExReq_avg_mshr_miss_latency::.cpu.data 84032.234129                       # average ReadExReq mshr miss latency
system.l2.ReadExReq_avg_mshr_miss_latency::total 84032.234129                       # average ReadExReq mshr miss latency
system.l2.ReadCleanReq_hits::.cpu.inst            257                       # number of ReadCleanReq hits
system.l2.ReadCleanReq_hits::total                257                       # number of ReadCleanReq hits
system.l2.ReadCleanReq_misses::.cpu.inst          333                       # number of ReadCleanReq misses
system.l2.ReadCleanReq_misses::total              333                       # number of ReadCleanReq misses
system.l2.ReadCleanReq_miss_latency::.cpu.inst     27670000                       # number of ReadCleanReq miss cycles
system.l2.ReadCleanReq_miss_latency::total     27670000                       # number of ReadCleanReq miss cycles
system.l2.ReadCleanReq_accesses::.cpu.inst          590                       # number of ReadCleanReq accesses(hits+misses)
system.l2.ReadCleanReq_accesses::total            590                       # number of ReadCleanReq accesses(hits+misses)
system.l2.ReadCleanReq_miss_rate::.cpu.inst     0.564407                       # miss rate for ReadCleanReq accesses
system.l2.ReadCleanReq_miss_rate::total      0.564407                       # miss rate for ReadCleanReq accesses
system.l2.ReadCleanReq_avg_miss_latency::.cpu.inst 83093.093093                       # average ReadCleanReq miss latency
system.l2.ReadCleanReq_avg_miss_latency::total 83093.093093                       # average ReadCleanReq miss latency
system.l2.ReadCleanReq_mshr_misses::.cpu.inst          333                       # number of ReadCleanReq MSHR misses
system.l2.ReadCleanReq_mshr_misses::total          333                       # number of ReadCleanReq MSHR misses
system.l2.ReadCleanReq_mshr_miss_latency::.cpu.inst     24340000                       # number of ReadCleanReq MSHR miss cycles
system.l2.ReadCleanReq_mshr_miss_latency::total     24340000                       # number of ReadCleanReq MSHR miss cycles
system.l2.ReadCleanReq_mshr_miss_rate::.cpu.inst     0.564407                       # mshr miss rate for ReadCleanReq accesses
system.l2.ReadCleanReq_mshr_miss_rate::total     0.564407                       # mshr miss rate for ReadCleanReq accesses
system.l2.ReadCleanReq_avg_mshr_miss_latency::.cpu.inst 73093.093093                       # average ReadCleanReq mshr miss latency
system.l2.ReadCleanReq_avg_mshr_miss_latency::total 73093.093093                       # average ReadCleanReq mshr miss latency
system.l2.ReadSharedReq_hits::.cpu.data            18                       # number of ReadSharedReq hits
system.l2.ReadSharedReq_hits::total                18                       # number of ReadSharedReq hits
system.l2.ReadSharedReq_misses::.cpu.data           81                       # number of ReadSharedReq misses
system.l2.ReadSharedReq_misses::total              81                       # number of ReadSharedReq misses
system.l2.ReadSharedReq_miss_latency::.cpu.data      7263500                       # number of ReadSharedReq miss cycles
system.l2.ReadSharedReq_miss_latency::total      7263500                       # number of ReadSharedReq miss cycles
system.l2.ReadSharedReq_accesses::.cpu.data           99                       # number of ReadSharedReq accesses(hits+misses)
system.l2.ReadSharedReq_accesses::total            99                       # number of ReadSharedReq accesses(hits+misses)
system.l2.ReadSharedReq_miss_rate::.cpu.data     0.818182                       # miss rate for ReadSharedReq accesses
system.l2.ReadSharedReq_miss_rate::total     0.818182                       # miss rate for ReadSharedReq accesses
system.l2.ReadSharedReq_avg_miss_latency::.cpu.data 89672.839506                       # average ReadSharedReq miss latency
system.l2.ReadSharedReq_avg_miss_latency::total 89672.839506                       # average ReadSharedReq miss latency
system.l2.ReadSharedReq_mshr_hits::.cpu.data            3                       # number of ReadSharedReq MSHR hits
system.l2.ReadSharedReq_mshr_hits::total            3                       # number of ReadSharedReq MSHR hits
system.l2.ReadSharedReq_mshr_misses::.cpu.data           78                       # number of ReadSharedReq MSHR misses
system.l2.ReadSharedReq_mshr_misses::total           78                       # number of ReadSharedReq MSHR misses
system.l2.ReadSharedReq_mshr_miss_latency::.cpu.data      6268000                       # number of ReadSharedReq MSHR miss cycles
system.l2.ReadSharedReq_mshr_miss_latency::total      6268000                       # number of ReadSharedReq MSHR miss cycles
system.l2.ReadSharedReq_mshr_miss_rate::.cpu.data     0.787879                       # mshr miss rate for ReadSharedReq accesses
system.l2.ReadSharedReq_mshr_miss_rate::total     0.787879                       # mshr miss rate for ReadSharedReq accesses
system.l2.ReadSharedReq_avg_mshr_miss_latency::.cpu.data 80358.974359                       # average ReadSharedReq mshr miss latency
system.l2.ReadSharedReq_avg_mshr_miss_latency::total 80358.974359                       # average ReadSharedReq mshr miss latency
system.l2.tags.pwrStateResidencyTicks::UNDEFINED 129065884500                       # Cumulative time (in ticks) in various power states
system.l2.tags.tagsinuse                 16220.176852                       # Cycle average of tags in use
system.l2.tags.total_refs                     1488557                       # Total number of references to valid blocks.
system.l2.tags.sampled_refs                    744343                       # Sample count of references to valid blocks.
system.l2.tags.avg_refs                      1.999827                       # Average number of references to valid blocks.
system.l2.tags.warmup_cycle                     82000                       # Cycle when the warmup percentage was hit.
system.l2.tags.occ_blocks::.cpu.inst         6.318478                       # Average occupied blocks per requestor
system.l2.tags.occ_blocks::.cpu.data     16213.858374                       # Average occupied blocks per requestor
system.l2.tags.occ_percent::.cpu.inst        0.000386                       # Average percentage of cache occupancy
system.l2.tags.occ_percent::.cpu.data        0.989615                       # Average percentage of cache occupancy
system.l2.tags.occ_percent::total            0.990001                       # Average percentage of cache occupancy
system.l2.tags.occ_task_id_blocks::1024         16384                       # Occupied blocks per task id
system.l2.tags.age_task_id_blocks_1024::0           57                       # Occupied blocks per task id
system.l2.tags.age_task_id_blocks_1024::1          518                       # Occupied blocks per task id
system.l2.tags.age_task_id_blocks_1024::2         5184                       # Occupied blocks per task id
system.l2.tags.age_task_id_blocks_1024::3        10625                       # Occupied blocks per task id
system.l2.tags.occ_task_id_percent::1024            1                       # Percentage of cache occupancy per task id
system.l2.tags.tag_accesses                  12652823                       # Number of tag accesses
system.l2.tags.data_accesses                 12652823                       # Number of data accesses
system.cpu_voltage_domain.voltage                   1                       # Voltage in Volts
system.mem_ctrls.pwrStateResidencyTicks::UNDEFINED 129065884500                       # Cumulative time (in ticks) in various power states
system.mem_ctrls.bytes_read::.cpu.inst          42624                       # Number of bytes read from this memory
system.mem_ctrls.bytes_read::.cpu.data       95233280                       # Number of bytes read from this memory
system.mem_ctrls.bytes_read::total           95275904                       # Number of bytes read from this memory
system.mem_ctrls.bytes_inst_read::.cpu.inst        42624                       # Number of instructions bytes read from this memory
system.mem_ctrls.bytes_inst_read::total         42624                       # Number of instructions bytes read from this memory
system.mem_ctrls.bytes_written::.writebacks     93127936                       # Number of bytes written to this memory
system.mem_ctrls.bytes_written::total        93127936                       # Number of bytes written to this memory
system.mem_ctrls.num_reads::.cpu.inst             333                       # Number of read requests responded to by this memory
system.mem_ctrls.num_reads::.cpu.data          744010                       # Number of read requests responded to by this memory
system.mem_ctrls.num_reads::total              744343                       # Number of read requests responded to by this memory
system.mem_ctrls.num_writes::.writebacks       727562                       # Number of write requests responded to by this memory
system.mem_ctrls.num_writes::total             727562                       # Number of write requests responded to by this memory
system.mem_ctrls.bw_read::.cpu.inst            330250                       # Total read bandwidth from this memory (bytes/s)
system.mem_ctrls.bw_read::.cpu.data         737865629                       # Total read bandwidth from this memory (bytes/s)
system.mem_ctrls.bw_read::total             738195879                       # Total read bandwidth from this memory (bytes/s)
system.mem_ctrls.bw_inst_read::.cpu.inst       330250                       # Instruction read bandwidth from this memory (bytes/s)
system.mem_ctrls.bw_inst_read::total           330250                       # Instruction read bandwidth from this memory (bytes/s)
system.mem_ctrls.bw_write::.writebacks      721553464                       # Write bandwidth from this memory (bytes/s)
system.mem_ctrls.bw_write::total            721553464                       # Write bandwidth from this memory (bytes/s)
system.mem_ctrls.bw_total::.writebacks      721553464                       # Total bandwidth to/from this memory (bytes/s)
system.mem_ctrls.bw_total::.cpu.inst           330250                       # Total bandwidth to/from this memory (bytes/s)
system.mem_ctrls.bw_total::.cpu.data        737865629                       # Total bandwidth to/from this memory (bytes/s)
system.mem_ctrls.bw_total::total           1459749342                       # Total bandwidth to/from this memory (bytes/s)
system.mem_ctrls.avgPriority_.writebacks::samples   1455124.00                       # Average QoS priority value for accepted requests
system.mem_ctrls.avgPriority_.cpu.inst::samples       666.00                       # Average QoS priority value for accepted requests
system.mem_ctrls.avgPriority_.cpu.data::samples   1488020.00                       # Average QoS priority value for accepted requests
system.mem_ctrls.priorityMinLatency      0.000000018750                       # per QoS priority minimum request to response latency (s)
system.mem_ctrls.priorityMaxLatency      0.000355980500                       # per QoS priority maximum request to response latency (s)
system.mem_ctrls.numReadWriteTurnArounds        80854                       # Number of turnarounds from READ to WRITE
system.mem_ctrls.numWriteReadTurnArounds        80854                       # Number of turnarounds from WRITE to READ
system.mem_ctrls.numStayReadState             2928916                       # Number of times bus staying in READ state
system.mem_ctrls.numStayWriteState            1375899                       # Number of times bus staying in WRITE state
system.mem_ctrls.readReqs                      744343                       # Number of read requests accepted
system.mem_ctrls.writeReqs                     727562                       # Number of write requests accepted
system.mem_ctrls.readBursts                   1488686                       # Number of DRAM read bursts, including those serviced by the write queue
system.mem_ctrls.writeBursts                  1455124                       # Number of DRAM write bursts, including those merged in the write queue
system.mem_ctrls.servicedByWrQ                      0                       # Number of DRAM read bursts serviced by the write queue
system.mem_ctrls.mergedWrBursts                     0                       # Number of DRAM write bursts merged with an existing one
system.mem_ctrls.neitherReadNorWriteReqs            0                       # Number of requests that are neither read nor write
system.mem_ctrls.perBankRdBursts::0             93104                       # Per bank write bursts
system.mem_ctrls.perBankRdBursts::1             92960                       # Per bank write bursts
system.mem_ctrls.perBankRdBursts::2             93004                       # Per bank write bursts
system.mem_ctrls.perBankRdBursts::3             93004                       # Per bank write bursts
system.mem_ctrls.perBankRdBursts::4             93122                       # Per bank write bursts
system.mem_ctrls.perBankRdBursts::5             93082                       # Per bank write bursts
system.mem_ctrls.perBankRdBursts::6             93064                       # Per bank write bursts
system.mem_ctrls.perBankRdBursts::7             93082                       # Per bank write bursts
system.mem_ctrls.perBankRdBursts::8             93190                       # Per bank write bursts
system.mem_ctrls.perBankRdBursts::9             93082                       # Per bank write bursts
system.mem_ctrls.perBankRdBursts::10            93068                       # Per bank write bursts
system.mem_ctrls.perBankRdBursts::11            92964                       # Per bank write bursts
system.mem_ctrls.perBankRdBursts::12            93024                       # Per bank write bursts
system.mem_ctrls.perBankRdBursts::13            92962                       # Per bank write bursts
system.mem_ctrls.perBankRdBursts::14            92968                       # Per bank write bursts
system.mem_ctrls.perBankRdBursts::15            93006                       # Per bank write bursts
system.mem_ctrls.perBankWrBursts::0             90938                       # Per bank write bursts
system.mem_ctrls.perBankWrBursts::1             90906                       # Per bank write bursts
system.mem_ctrls.perBankWrBursts::2             90898                       # Per bank write bursts
system.mem_ctrls.perBankWrBursts::3             90950                       # Per bank write bursts
system.mem_ctrls.perBankWrBursts::4             91010                       # Per bank write bursts
system.mem_ctrls.perBankWrBursts::5             91008                       # Per bank write bursts
system.mem_ctrls.perBankWrBursts::6             91008                       # Per bank write bursts
system.mem_ctrls.perBankWrBursts::7             91008                       # Per bank write bursts
system.mem_ctrls.perBankWrBursts::8             91008                       # Per bank write bursts
system.mem_ctrls.perBankWrBursts::9             91008                       # Per bank write bursts
system.mem_ctrls.perBankWrBursts::10            90949                       # Per bank write bursts
system.mem_ctrls.perBankWrBursts::11            90880                       # Per bank write bursts
system.mem_ctrls.perBankWrBursts::12            90880                       # Per bank write bursts
system.mem_ctrls.perBankWrBursts::13            90880                       # Per bank write bursts
system.mem_ctrls.perBankWrBursts::14            90880                       # Per bank write bursts
system.mem_ctrls.perBankWrBursts::15            90886                       # Per bank write bursts
system.mem_ctrls.avgRdQLen                       2.00                       # Average read queue length when enqueuing
system.mem_ctrls.avgWrQLen                      25.18                       # Average write queue length when enqueuing
system.mem_ctrls.totQLat                  32073678000                       # Total ticks spent queuing
system.mem_ctrls.totBusLat                 7443430000                       # Total ticks spent in databus transfers
system.mem_ctrls.totMemAccLat             59986540500                       # Total ticks spent from burst creation until serviced by the DRAM
system.mem_ctrls.avgQLat                     21544.96                       # Average queueing delay per DRAM burst
system.mem_ctrls.avgBusLat                    5000.00                       # Average bus latency per DRAM burst
system.mem_ctrls.avgMemAccLat                40294.96                       # Average memory access latency per DRAM burst
system.mem_ctrls.numRdRetry                         0                       # Number of times read queue was full causing retry
system.mem_ctrls.numWrRetry                         0                       # Number of times write queue was full causing retry
system.mem_ctrls.readRowHits                  1322471                       # Number of row buffer hits during reads
system.mem_ctrls.writeRowHits                 1293138                       # Number of row buffer hits during writes
system.mem_ctrls.readRowHitRate                 88.83                       # Row buffer hit rate for reads
system.mem_ctrls.writeRowHitRate                88.87                       # Row buffer hit rate for writes
system.mem_ctrls.readPktSize::0                     0                       # Read request sizes (log2)
system.mem_ctrls.readPktSize::1                     0                       # Read request sizes (log2)
system.mem_ctrls.readPktSize::2                     0                       # Read request sizes (log2)
system.mem_ctrls.readPktSize::3                     0                       # Read request sizes (log2)
system.mem_ctrls.readPktSize::4                     0                       # Read request sizes (log2)
system.mem_ctrls.readPktSize::5                     0                       # Read request sizes (log2)
system.mem_ctrls.readPktSize::6               1488686                       # Read request sizes (log2)
system.mem_ctrls.writePktSize::0                    0                       # Write request sizes (log2)
system.mem_ctrls.writePktSize::1                    0                       # Write request sizes (log2)
system.mem_ctrls.writePktSize::2                    0                       # Write request sizes (log2)
system.mem_ctrls.writePktSize::3                    0                       # Write request sizes (log2)
system.mem_ctrls.writePktSize::4                    0                       # Write request sizes (log2)
system.mem_ctrls.writePktSize::5                    0                       # Write request sizes (log2)
system.mem_ctrls.writePktSize::6              1455124                       # Write request sizes (log2)
system.mem_ctrls.rdQLenPdf::0                  744281                       # What read queue length does an incoming req see
system.mem_ctrls.rdQLenPdf::1                  744281                       # What read queue length does an incoming req see
system.mem_ctrls.rdQLenPdf::2                      55                       # What read queue length does an incoming req see
system.mem_ctrls.rdQLenPdf::3                      56                       # What read queue length does an incoming req see
system.mem_ctrls.rdQLenPdf::4                       7                       # What read queue length does an incoming req see
system.mem_ctrls.rdQLenPdf::5                       6                       # What read queue length does an incoming req see
system.mem_ctrls.rdQLenPdf::6                       0                       # What read queue length does an incoming req see
system.mem_ctrls.rdQLenPdf::7                       0                       # What read queue length does an incoming req see
system.mem_ctrls.rdQLenPdf::8                       0                       # What read queue length does an incoming req see
system.mem_ctrls.rdQLenPdf::9                       0                       # What read queue length does an incoming req see
system.mem_ctrls.rdQLenPdf::10                      0                       # What read queue length does an incoming req see
system.mem_ctrls.rdQLenPdf::11                      0                       # What read queue length does an incoming req see
system.mem_ctrls.rdQLenPdf::12                      0                       # What read queue length does an incoming req see
system.mem_ctrls.rdQLenPdf::13                      0                       # What read queue length does an incoming req see
system.mem_ctrls.rdQLenPdf::14                      0                       # What read queue length does an incoming req see
system.mem_ctrls.rdQLenPdf::15                      0                       # What read queue length does an incoming req see
system.mem_ctrls.rdQLenPdf::16                      0                       # What read queue length does an incoming req see
system.mem_ctrls.rdQLenPdf::17                      0                       # What read queue length does an incoming req see
system.mem_ctrls.rdQLenPdf::18                      0                       # What read queue length does an incoming req see
system.mem_ctrls.rdQLenPdf::19                      0                       # What read queue length does an incoming req see
system.mem_ctrls.rdQLenPdf::20                      0                       # What read queue length does an incoming req see
system.mem_ctrls.rdQLenPdf::21                      0                       # What read queue length does an incoming req see
system.mem_ctrls.rdQLenPdf::22                      0                       # What read queue length does an incoming req see
system.mem_ctrls.rdQLenPdf::23                      0                       # What read queue length does an incoming req see
system.mem_ctrls.rdQLenPdf::24                      0                       # What read queue length does an incoming req see
system.mem_ctrls.rdQLenPdf::25                      0                       # What read queue length does an incoming req see
system.mem_ctrls.rdQLenPdf::26                      0                       # What read queue length does an incoming req see
system.mem_ctrls.rdQLenPdf::27                      0                       # What read queue length does an incoming req see
system.mem_ctrls.rdQLenPdf::28                      0                       # What read queue length does an incoming req see
system.mem_ctrls.rdQLenPdf::29                      0                       # What read queue length does an incoming req see
system.mem_ctrls.rdQLenPdf::30                      0                       # What read queue length does an incoming req see
system.mem_ctrls.rdQLenPdf::31                      0                       # What read queue length does an incoming req see
system.mem_ctrls.wrQLenPdf::0                       1                       # What write queue length does an incoming req see
system.mem_ctrls.wrQLenPdf::1                       1                       # What write queue length does an incoming req see
system.mem_ctrls.wrQLenPdf::2                       1                       # What write queue length does an incoming req see
system.mem_ctrls.wrQLenPdf::3                       1                       # What write queue length does an incoming req see
system.mem_ctrls.wrQLenPdf::4                       1                       # What write queue length does an incoming req see
system.mem_ctrls.wrQLenPdf::5                       1                       # What write queue length does an incoming req see
system.mem_ctrls.wrQLenPdf::6                       1                       # What write queue length does an incoming req see
system.mem_ctrls.wrQLenPdf::7                       1                       # What write queue length does an incoming req see
system.mem_ctrls.wrQLenPdf::8                       1                       # What write queue length does an incoming req see
system.mem_ctrls.wrQLenPdf::9                       1                       # What write queue length does an incoming req see
system.mem_ctrls.wrQLenPdf::10                      1                       # What write queue length does an incoming req see
system.mem_ctrls.wrQLenPdf::11                      1                       # What write queue length does an incoming req see
system.mem_ctrls.wrQLenPdf::12                      1                       # What write queue length does an incoming req see
system.mem_ctrls.wrQLenPdf::13                      1                       # What write queue length does an incoming req see
system.mem_ctrls.wrQLenPdf::14                      1                       # What write queue length does an incoming req see
system.mem_ctrls.wrQLenPdf::15                  79794                       # What write queue length does an incoming req see
system.mem_ctrls.wrQLenPdf::16                  80229                       # What write queue length does an incoming req see
system.mem_ctrls.wrQLenPdf::17                  80998                       # What write queue length does an incoming req see
system.mem_ctrls.wrQLenPdf::18                  80989                       # What write queue length does an incoming req see
system.mem_ctrls.wrQLenPdf::19                  80855                       # What write queue length does an incoming req see
system.mem_ctrls.wrQLenPdf::20                  80855                       # What write queue length does an incoming req see
system.mem_ctrls.wrQLenPdf::21                  80855                       # What write queue length does an incoming req see
system.mem_ctrls.wrQLenPdf::22                  80855                       # What write queue length does an incoming req see
system.mem_ctrls.wrQLenPdf::23                  80926                       # What write queue length does an incoming req see
system.mem_ctrls.wrQLenPdf::24                  81209                       # What write queue length does an incoming req see
system.mem_ctrls.wrQLenPdf::25                  81138                       # What write queue length does an incoming req see
system.mem_ctrls.wrQLenPdf::26                  80855                       # What write queue length does an incoming req see
system.mem_ctrls.wrQLenPdf::27                  80854                       # What write queue length does an incoming req see
system.mem_ctrls.wrQLenPdf::28                  80854                       # What write queue length does an incoming req see
system.mem_ctrls.wrQLenPdf::29                  80854                       # What write queue length does an incoming req see
system.mem_ctrls.wrQLenPdf::30                  80854                       # What write queue length does an incoming req see
system.mem_ctrls.wrQLenPdf::31                  80854                       # What write queue length does an incoming req see
system.mem_ctrls.wrQLenPdf::32                  80854                       # What write queue length does an incoming req see
system.mem_ctrls.wrQLenPdf::33                    427                       # What write queue length does an incoming req see
system.mem_ctrls.wrQLenPdf::34                      0                       # What write queue length does an incoming req see
system.mem_ctrls.wrQLenPdf::35                      0                       # What write queue length does an incoming req see
system.mem_ctrls.wrQLenPdf::36                      0                       # What write queue length does an incoming req see
system.mem_ctrls.wrQLenPdf::37                      0                       # What write queue length does an incoming req see
system.mem_ctrls.wrQLenPdf::38                      0                       # What write queue length does an incoming req see
system.mem_ctrls.wrQLenPdf::39                      0                       # What write queue length does an incoming req see
system.mem_ctrls.wrQLenPdf::40                      0                       # What write queue length does an incoming req see
system.mem_ctrls.wrQLenPdf::41                      0                       # What write queue length does an incoming req see
system.mem_ctrls.wrQLenPdf::42                      0                       # What write queue length does an incoming req see
system.mem_ctrls.wrQLenPdf::43                      0                       # What write queue length does an incoming req see
system.mem_ctrls.wrQLenPdf::44                      0                       # What write queue length does an incoming req see
system.mem_ctrls.wrQLenPdf::45                      0                       # What write queue length does an incoming req see
system.mem_ctrls.wrQLenPdf::46                      0                       # What write queue length does an incoming req see
system.mem_ctrls.wrQLenPdf::47                      0                       # What write queue length does an incoming req see
system.mem_ctrls.wrQLenPdf::48                      0                       # What write queue length does an incoming req see
system.mem_ctrls.wrQLenPdf::49                      0                       # What write queue length does an incoming req see
system.mem_ctrls.wrQLenPdf::50                      0                       # What write queue length does an incoming req see
system.mem_ctrls.wrQLenPdf::51                      0                       # What write queue length does an incoming req see
system.mem_ctrls.wrQLenPdf::52                      0                       # What write queue length does an incoming req see
system.mem_ctrls.wrQLenPdf::53                      0                       # What write queue length does an incoming req see
system.mem_ctrls.wrQLenPdf::54                      0                       # What write queue length does an incoming req see
system.mem_ctrls.wrQLenPdf::55                      0                       # What write queue length does an incoming req see
system.mem_ctrls.wrQLenPdf::56                      0                       # What write queue length does an incoming req see
system.mem_ctrls.wrQLenPdf::57                      0                       # What write queue length does an incoming req see
system.mem_ctrls.wrQLenPdf::58                      0                       # What write queue length does an incoming req see
system.mem_ctrls.wrQLenPdf::59                      0                       # What write queue length does an incoming req see
system.mem_ctrls.wrQLenPdf::60                      0                       # What write queue length does an incoming req see
system.mem_ctrls.wrQLenPdf::61                      0                       # What write queue length does an incoming req see
system.mem_ctrls.wrQLenPdf::62                      0                       # What write queue length does an incoming req see
system.mem_ctrls.wrQLenPdf::63                      0                       # What write queue length does an incoming req see
system.mem_ctrls.bytesPerActivate::samples       328173                       # Bytes accessed per row activation
system.mem_ctrls.bytesPerActivate::mean    574.091933                       # Bytes accessed per row activation
system.mem_ctrls.bytesPerActivate::gmean   380.847599                       # Bytes accessed per row activation
system.mem_ctrls.bytesPerActivate::stdev   420.359747                       # Bytes accessed per row activation
system.mem_ctrls.bytesPerActivate::0-127         5602      1.71%      1.71% # Bytes accessed per row activation
system.mem_ctrls.bytesPerActivate::128-255       131927     40.20%     41.91% # Bytes accessed per row activation
system.mem_ctrls.bytesPerActivate::256-383        11457      3.49%     45.40% # Bytes accessed per row activation
system.mem_ctrls.bytesPerActivate::384-511         8291      2.53%     47.93% # Bytes accessed per row activation
system.mem_ctrls.bytesPerActivate::512-639         9315      2.84%     50.76% # Bytes accessed per row activation
system.mem_ctrls.bytesPerActivate::640-767         8564      2.61%     53.37% # Bytes accessed per row activation
system.mem_ctrls.bytesPerActivate::768-895         8006      2.44%     55.81% # Bytes accessed per row activation
system.mem_ctrls.bytesPerActivate::896-1023         8391      2.56%     58.37% # Bytes accessed per row activation
system.mem_ctrls.bytesPerActivate::1024-1151       136620     41.63%    100.00% # Bytes accessed per row activation
system.mem_ctrls.bytesPerActivate::total       328173                       # Bytes accessed per row activation
system.mem_ctrls.rdPerTurnAround::samples        80854                       # Reads before turning the bus around for writes
system.mem_ctrls.rdPerTurnAround::mean      18.411878                       # Reads before turning the bus around for writes
system.mem_ctrls.rdPerTurnAround::gmean     17.998877                       # Reads before turning the bus around for writes
system.mem_ctrls.rdPerTurnAround::stdev    109.985112                       # Reads before turning the bus around for writes
system.mem_ctrls.rdPerTurnAround::0-1023        80852    100.00%    100.00% # Reads before turning the bus around for writes
system.mem_ctrls.rdPerTurnAround::2048-3071            1      0.00%    100.00% # Reads before turning the bus around for writes
system.mem_ctrls.rdPerTurnAround::30720-31743            1      0.00%    100.00% # Reads before turning the bus around for writes
system.mem_ctrls.rdPerTurnAround::total         80854                       # Reads before turning the bus around for writes
system.mem_ctrls.wrPerTurnAround::samples        80854                       # Writes before turning the bus around for reads
system.mem_ctrls.wrPerTurnAround::mean      17.996599                       # Writes before turning the bus around for reads
system.mem_ctrls.wrPerTurnAround::gmean     17.995846                       # Writes before turning the bus around for reads
system.mem_ctrls.wrPerTurnAround::stdev      0.162006                       # Writes before turning the bus around for reads
system.mem_ctrls.wrPerTurnAround::16              352      0.44%      0.44% # Writes before turning the bus around for reads
system.mem_ctrls.wrPerTurnAround::18            80216     99.21%     99.65% # Writes before turning the bus around for reads
system.mem_ctrls.wrPerTurnAround::19              143      0.18%     99.82% # Writes before turning the bus around for reads
system.mem_ctrls.wrPerTurnAround::20              143      0.18%    100.00% # Writes before turning the bus around for reads
system.mem_ctrls.wrPerTurnAround::total         80854                       # Writes before turning the bus around for reads
[...]
system.cpu.icache.ReadReq_miss_rate::total     0.000141                       # miss rate for ReadReq accesses
system.cpu.icache.ReadReq_avg_miss_latency::.cpu.inst 54215.254237                       # average ReadReq miss latency
system.cpu.icache.ReadReq_avg_miss_latency::total 54215.254237                       # average ReadReq miss latency
system.cpu.icache.ReadReq_mshr_misses::.cpu.inst          590                       # number of ReadReq MSHR misses
system.cpu.icache.ReadReq_mshr_misses::total          590                       # number of ReadReq MSHR misses
system.cpu.icache.ReadReq_mshr_miss_latency::.cpu.inst     31397000                       # number of ReadReq MSHR miss cycles
system.cpu.icache.ReadReq_mshr_miss_latency::total     31397000                       # number of ReadReq MSHR miss cycles
system.cpu.icache.ReadReq_mshr_miss_rate::.cpu.inst     0.000141                       # mshr miss rate for ReadReq accesses
system.cpu.icache.ReadReq_mshr_miss_rate::total     0.000141                       # mshr miss rate for ReadReq accesses
system.cpu.icache.ReadReq_avg_mshr_miss_latency::.cpu.inst 53215.254237                       # average ReadReq mshr miss latency
system.cpu.icache.ReadReq_avg_mshr_miss_latency::total 53215.254237                       # average ReadReq mshr miss latency
system.cpu.icache.tags.pwrStateResidencyTicks::UNDEFINED 129065884500                       # Cumulative time (in ticks) in various power states
system.cpu.icache.tags.tagsinuse           125.987402                       # Cycle average of tags in use
system.cpu.icache.tags.total_refs             4173738                       # Total number of references to valid blocks.
system.cpu.icache.tags.sampled_refs               590                       # Sample count of references to valid blocks.
system.cpu.icache.tags.avg_refs           7074.132203                       # Average number of references to valid blocks.
system.cpu.icache.tags.warmup_cycle             92500                       # Cycle when the warmup percentage was hit.
system.cpu.icache.tags.occ_blocks::.cpu.inst   125.987402                       # Average occupied blocks per requestor
system.cpu.icache.tags.occ_percent::.cpu.inst     0.984277                       # Average percentage of cache occupancy
system.cpu.icache.tags.occ_percent::total     0.984277                       # Average percentage of cache occupancy
system.cpu.icache.tags.occ_task_id_blocks::1024          126                       # Occupied blocks per task id
system.cpu.icache.tags.age_task_id_blocks_1024::4          126                       # Occupied blocks per task id
system.cpu.icache.tags.occ_task_id_percent::1024     0.984375                       # Percentage of cache occupancy per task id
system.cpu.icache.tags.tag_accesses           8348066                       # Number of tag accesses
system.cpu.icache.tags.data_accesses          8348066                       # Number of data accesses
system.cpu.dtb.walker.pwrStateResidencyTicks::UNDEFINED 129065884500                       # Cumulative time (in ticks) in various power states
system.cpu.dtb.stage2_mmu.stage2_tlb.walker.pwrStateResidencyTicks::UNDEFINED 129065884500                       # Cumulative time (in ticks) in various power states
system.cpu.dcache.pwrStateResidencyTicks::UNDEFINED 129065884500                       # Cumulative time (in ticks) in various power states
system.cpu.dcache.demand_hits::.cpu.data     47318637                       # number of demand (read+write) hits
system.cpu.dcache.demand_hits::total         47318637                       # number of demand (read+write) hits
system.cpu.dcache.overall_hits::.cpu.data     47318676                       # number of overall hits
system.cpu.dcache.overall_hits::total        47318676                       # number of overall hits
system.cpu.dcache.demand_misses::.cpu.data      1487942                       # number of demand (read+write) misses
system.cpu.dcache.demand_misses::total        1487942                       # number of demand (read+write) misses
system.cpu.dcache.overall_misses::.cpu.data      1487955                       # number of overall misses
system.cpu.dcache.overall_misses::total       1487955                       # number of overall misses
system.cpu.dcache.demand_miss_latency::.cpu.data 140433594000                       # number of demand (read+write) miss cycles
system.cpu.dcache.demand_miss_latency::total 140433594000                       # number of demand (read+write) miss cycles
system.cpu.dcache.overall_miss_latency::.cpu.data 140433594000                       # number of overall miss cycles
system.cpu.dcache.overall_miss_latency::total 140433594000                       # number of overall miss cycles
system.cpu.dcache.demand_accesses::.cpu.data     48806579                       # number of demand (read+write) accesses
system.cpu.dcache.demand_accesses::total     48806579                       # number of demand (read+write) accesses
system.cpu.dcache.overall_accesses::.cpu.data     48806631                       # number of overall (read+write) accesses
system.cpu.dcache.overall_accesses::total     48806631                       # number of overall (read+write) accesses
system.cpu.dcache.demand_miss_rate::.cpu.data     0.030487                       # miss rate for demand accesses
system.cpu.dcache.demand_miss_rate::total     0.030487                       # miss rate for demand accesses
system.cpu.dcache.overall_miss_rate::.cpu.data     0.030487                       # miss rate for overall accesses
system.cpu.dcache.overall_miss_rate::total     0.030487                       # miss rate for overall accesses
system.cpu.dcache.demand_avg_miss_latency::.cpu.data 94381.094156                       # average overall miss latency
system.cpu.dcache.demand_avg_miss_latency::total 94381.094156                       # average overall miss latency
system.cpu.dcache.overall_avg_miss_latency::.cpu.data 94380.269565                       # average overall miss latency
system.cpu.dcache.overall_avg_miss_latency::total 94380.269565                       # average overall miss latency
system.cpu.dcache.blocked_cycles::no_mshrs            0                       # number of cycles access was blocked
system.cpu.dcache.blocked_cycles::no_targets            0                       # number of cycles access was blocked
system.cpu.dcache.blocked::no_mshrs                 0                       # number of cycles access was blocked
system.cpu.dcache.blocked::no_targets               0                       # number of cycles access was blocked
system.cpu.dcache.avg_blocked_cycles::no_mshrs          nan                       # average number of cycles each access was blocked
system.cpu.dcache.avg_blocked_cycles::no_targets          nan                       # average number of cycles each access was blocked
system.cpu.dcache.writebacks::.writebacks       743436                       # number of writebacks
system.cpu.dcache.writebacks::total            743436                       # number of writebacks
system.cpu.dcache.demand_mshr_hits::.cpu.data       743920                       # number of demand (read+write) MSHR hits
system.cpu.dcache.demand_mshr_hits::total       743920                       # number of demand (read+write) MSHR hits
system.cpu.dcache.overall_mshr_hits::.cpu.data       743920                       # number of overall MSHR hits
system.cpu.dcache.overall_mshr_hits::total       743920                       # number of overall MSHR hits
system.cpu.dcache.demand_mshr_misses::.cpu.data       744022                       # number of demand (read+write) MSHR misses
system.cpu.dcache.demand_mshr_misses::total       744022                       # number of demand (read+write) MSHR misses
system.cpu.dcache.overall_mshr_misses::.cpu.data       744031                       # number of overall MSHR misses
system.cpu.dcache.overall_mshr_misses::total       744031                       # number of overall MSHR misses
system.cpu.dcache.demand_mshr_miss_latency::.cpu.data  71076302500                       # number of demand (read+write) MSHR miss cycles
system.cpu.dcache.demand_mshr_miss_latency::total  71076302500                       # number of demand (read+write) MSHR miss cycles
system.cpu.dcache.overall_mshr_miss_latency::.cpu.data  71077106500                       # number of overall MSHR miss cycles
system.cpu.dcache.overall_mshr_miss_latency::total  71077106500                       # number of overall MSHR miss cycles
system.cpu.dcache.demand_mshr_miss_rate::.cpu.data     0.015244                       # mshr miss rate for demand accesses
system.cpu.dcache.demand_mshr_miss_rate::total     0.015244                       # mshr miss rate for demand accesses
system.cpu.dcache.overall_mshr_miss_rate::.cpu.data     0.015244                       # mshr miss rate for overall accesses
system.cpu.dcache.overall_mshr_miss_rate::total     0.015244                       # mshr miss rate for overall accesses
system.cpu.dcache.demand_avg_mshr_miss_latency::.cpu.data 95529.839843                       # average overall mshr miss latency
system.cpu.dcache.demand_avg_mshr_miss_latency::total 95529.839843                       # average overall mshr miss latency
system.cpu.dcache.overall_avg_mshr_miss_latency::.cpu.data 95529.764889                       # average overall mshr miss latency
system.cpu.dcache.overall_avg_mshr_miss_latency::total 95529.764889                       # average overall mshr miss latency
system.cpu.dcache.replacements                 743519                       # number of replacements
system.cpu.dcache.ReadReq_hits::.cpu.data     35710901                       # number of ReadReq hits
system.cpu.dcache.ReadReq_hits::total        35710901                       # number of ReadReq hits
system.cpu.dcache.ReadReq_misses::.cpu.data           95                       # number of ReadReq misses
system.cpu.dcache.ReadReq_misses::total            95                       # number of ReadReq misses
system.cpu.dcache.ReadReq_miss_latency::.cpu.data      7379500                       # number of ReadReq miss cycles
system.cpu.dcache.ReadReq_miss_latency::total      7379500                       # number of ReadReq miss cycles
system.cpu.dcache.ReadReq_accesses::.cpu.data     35710996                       # number of ReadReq accesses(hits+misses)
system.cpu.dcache.ReadReq_accesses::total     35710996                       # number of ReadReq accesses(hits+misses)
system.cpu.dcache.ReadReq_miss_rate::.cpu.data     0.000003                       # miss rate for ReadReq accesses
system.cpu.dcache.ReadReq_miss_rate::total     0.000003                       # miss rate for ReadReq accesses
system.cpu.dcache.ReadReq_avg_miss_latency::.cpu.data 77678.947368                       # average ReadReq miss latency
system.cpu.dcache.ReadReq_avg_miss_latency::total 77678.947368                       # average ReadReq miss latency
system.cpu.dcache.ReadReq_mshr_hits::.cpu.data            5                       # number of ReadReq MSHR hits
system.cpu.dcache.ReadReq_mshr_hits::total            5                       # number of ReadReq MSHR hits
system.cpu.dcache.ReadReq_mshr_misses::.cpu.data           90                       # number of ReadReq MSHR misses
system.cpu.dcache.ReadReq_mshr_misses::total           90                       # number of ReadReq MSHR misses
system.cpu.dcache.ReadReq_mshr_miss_latency::.cpu.data      6816000                       # number of ReadReq MSHR miss cycles
system.cpu.dcache.ReadReq_mshr_miss_latency::total      6816000                       # number of ReadReq MSHR miss cycles
system.cpu.dcache.ReadReq_mshr_miss_rate::.cpu.data     0.000003                       # mshr miss rate for ReadReq accesses
system.cpu.dcache.ReadReq_mshr_miss_rate::total     0.000003                       # mshr miss rate for ReadReq accesses
system.cpu.dcache.ReadReq_avg_mshr_miss_latency::.cpu.data 75733.333333                       # average ReadReq mshr miss latency
system.cpu.dcache.ReadReq_avg_mshr_miss_latency::total 75733.333333                       # average ReadReq mshr miss latency
system.cpu.dcache.WriteReq_hits::.cpu.data     11607736                       # number of WriteReq hits
system.cpu.dcache.WriteReq_hits::total       11607736                       # number of WriteReq hits
system.cpu.dcache.WriteReq_misses::.cpu.data      1487847                       # number of WriteReq misses
system.cpu.dcache.WriteReq_misses::total      1487847                       # number of WriteReq misses
system.cpu.dcache.WriteReq_miss_latency::.cpu.data 140426214500                       # number of WriteReq miss cycles
system.cpu.dcache.WriteReq_miss_latency::total 140426214500                       # number of WriteReq miss cycles
system.cpu.dcache.WriteReq_accesses::.cpu.data     13095583                       # number of WriteReq accesses(hits+misses)
system.cpu.dcache.WriteReq_accesses::total     13095583                       # number of WriteReq accesses(hits+misses)
system.cpu.dcache.WriteReq_miss_rate::.cpu.data     0.113614                       # miss rate for WriteReq accesses
system.cpu.dcache.WriteReq_miss_rate::total     0.113614                       # miss rate for WriteReq accesses
system.cpu.dcache.WriteReq_avg_miss_latency::.cpu.data 94382.160599                       # average WriteReq miss latency
system.cpu.dcache.WriteReq_avg_miss_latency::total 94382.160599                       # average WriteReq miss latency
system.cpu.dcache.WriteReq_mshr_hits::.cpu.data       743915                       # number of WriteReq MSHR hits
system.cpu.dcache.WriteReq_mshr_hits::total       743915                       # number of WriteReq MSHR hits
system.cpu.dcache.WriteReq_mshr_misses::.cpu.data       743932                       # number of WriteReq MSHR misses
system.cpu.dcache.WriteReq_mshr_misses::total       743932                       # number of WriteReq MSHR misses
system.cpu.dcache.WriteReq_mshr_miss_latency::.cpu.data  71069486500                       # number of WriteReq MSHR miss cycles
system.cpu.dcache.WriteReq_mshr_miss_latency::total  71069486500                       # number of WriteReq MSHR miss cycles
system.cpu.dcache.WriteReq_mshr_miss_rate::.cpu.data     0.056808                       # mshr miss rate for WriteReq accesses
system.cpu.dcache.WriteReq_mshr_miss_rate::total     0.056808                       # mshr miss rate for WriteReq accesses
system.cpu.dcache.WriteReq_avg_mshr_miss_latency::.cpu.data 95532.234801                       # average WriteReq mshr miss latency
system.cpu.dcache.WriteReq_avg_mshr_miss_latency::total 95532.234801                       # average WriteReq mshr miss latency
system.cpu.dcache.SoftPFReq_hits::.cpu.data           39                       # number of SoftPFReq hits
system.cpu.dcache.SoftPFReq_hits::total            39                       # number of SoftPFReq hits
system.cpu.dcache.SoftPFReq_misses::.cpu.data           13                       # number of SoftPFReq misses
system.cpu.dcache.SoftPFReq_misses::total           13                       # number of SoftPFReq misses
system.cpu.dcache.SoftPFReq_accesses::.cpu.data           52                       # number of SoftPFReq accesses(hits+misses)
system.cpu.dcache.SoftPFReq_accesses::total           52                       # number of SoftPFReq accesses(hits+misses)
system.cpu.dcache.SoftPFReq_miss_rate::.cpu.data     0.250000                       # miss rate for SoftPFReq accesses
system.cpu.dcache.SoftPFReq_miss_rate::total     0.250000                       # miss rate for SoftPFReq accesses
system.cpu.dcache.SoftPFReq_mshr_misses::.cpu.data            9                       # number of SoftPFReq MSHR misses
system.cpu.dcache.SoftPFReq_mshr_misses::total            9                       # number of SoftPFReq MSHR misses
system.cpu.dcache.SoftPFReq_mshr_miss_latency::.cpu.data       804000                       # number of SoftPFReq MSHR miss cycles
system.cpu.dcache.SoftPFReq_mshr_miss_latency::total       804000                       # number of SoftPFReq MSHR miss cycles
system.cpu.dcache.SoftPFReq_mshr_miss_rate::.cpu.data     0.173077                       # mshr miss rate for SoftPFReq accesses
system.cpu.dcache.SoftPFReq_mshr_miss_rate::total     0.173077                       # mshr miss rate for SoftPFReq accesses
system.cpu.dcache.SoftPFReq_avg_mshr_miss_latency::.cpu.data 89333.333333                       # average SoftPFReq mshr miss latency
system.cpu.dcache.SoftPFReq_avg_mshr_miss_latency::total 89333.333333                       # average SoftPFReq mshr miss latency
system.cpu.dcache.LoadLockedReq_hits::.cpu.data           14                       # number of LoadLockedReq hits
system.cpu.dcache.LoadLockedReq_hits::total           14                       # number of LoadLockedReq hits
system.cpu.dcache.LoadLockedReq_accesses::.cpu.data           14                       # number of LoadLockedReq accesses(hits+misses)
system.cpu.dcache.LoadLockedReq_accesses::total           14                       # number of LoadLockedReq accesses(hits+misses)
system.cpu.dcache.StoreCondReq_hits::.cpu.data           14                       # number of StoreCondReq hits
system.cpu.dcache.StoreCondReq_hits::total           14                       # number of StoreCondReq hits
system.cpu.dcache.StoreCondReq_accesses::.cpu.data           14                       # number of StoreCondReq accesses(hits+misses)
system.cpu.dcache.StoreCondReq_accesses::total           14                       # number of StoreCondReq accesses(hits+misses)
system.cpu.dcache.tags.pwrStateResidencyTicks::UNDEFINED 129065884500                       # Cumulative time (in ticks) in various power states
system.cpu.dcache.tags.tagsinuse           511.717942                       # Cycle average of tags in use
system.cpu.dcache.tags.total_refs            48062735                       # Total number of references to valid blocks.
system.cpu.dcache.tags.sampled_refs            744031                       # Sample count of references to valid blocks.
system.cpu.dcache.tags.avg_refs             64.597759                       # Average number of references to valid blocks.
system.cpu.dcache.tags.warmup_cycle            186500                       # Cycle when the warmup percentage was hit.
system.cpu.dcache.tags.occ_blocks::.cpu.data   511.717942                       # Average occupied blocks per requestor
system.cpu.dcache.tags.occ_percent::.cpu.data     0.999449                       # Average percentage of cache occupancy
system.cpu.dcache.tags.occ_percent::total     0.999449                       # Average percentage of cache occupancy
system.cpu.dcache.tags.occ_task_id_blocks::1024          512                       # Occupied blocks per task id
system.cpu.dcache.tags.age_task_id_blocks_1024::0           57                       # Occupied blocks per task id
system.cpu.dcache.tags.age_task_id_blocks_1024::1          453                       # Occupied blocks per task id
system.cpu.dcache.tags.age_task_id_blocks_1024::4            2                       # Occupied blocks per task id
system.cpu.dcache.tags.occ_task_id_percent::1024            1                       # Percentage of cache occupancy per task id
system.cpu.dcache.tags.tag_accesses          98357349                       # Number of tag accesses
system.cpu.dcache.tags.data_accesses         98357349                       # Number of data accesses
system.cpu.itb.walker.pwrStateResidencyTicks::UNDEFINED 129065884500                       # Cumulative time (in ticks) in various power states
system.cpu.itb.stage2_mmu.stage2_tlb.walker.pwrStateResidencyTicks::UNDEFINED 129065884500                       # Cumulative time (in ticks) in various power states

---------- End Simulation Statistics   ----------
