
---------- Begin Simulation Statistics ----------
final_tick                                55530634000                       # Number of ticks from beginning of simulation (restored from checkpoints and never reset)
host_inst_rate                                 151333                       # Simulator instruction rate (inst/s)
host_mem_usage                                 684952                       # Number of bytes of host memory used
host_op_rate                                   165606                       # Simulator op (including micro ops) rate (op/s)
host_seconds                                   660.80                       # Real time elapsed on the host
host_tick_rate                               84035949                       # Simulator tick rate (ticks/s)
sim_freq                                 1000000000000                       # Frequency of simulated ticks
sim_insts                                   100000001                       # Number of instructions simulated
sim_ops                                     109431937                       # Number of ops (including micro ops) simulated
sim_seconds                                  0.055531                       # Number of seconds simulated
sim_ticks                                 55530634000                       # Number of ticks simulated
system.cpu.branchPred.BTBCorrect                    0                       # Number of correct BTB predictions (this stat may not work properly.
system.cpu.branchPred.BTBHitPct             86.970332                       # BTB Hit Percentage
system.cpu.branchPred.BTBHits                 8735501                       # Number of BTB hits
system.cpu.branchPred.BTBLookups             10044231                       # Number of BTB lookups
system.cpu.branchPred.RASInCorrect                350                       # Number of incorrect RAS predictions.
system.cpu.branchPred.condIncorrect            152014                       # Number of conditional branches incorrect
system.cpu.branchPred.condPredicted          16614913                       # Number of conditional branches predicted
system.cpu.branchPred.indirectHits             300033                       # Number of indirect target hits.
system.cpu.branchPred.indirectLookups          610185                       # Number of indirect predictor lookups.
system.cpu.branchPred.indirectMisses           310152                       # Number of indirect misses.
system.cpu.branchPred.lookups                20722402                       # Number of BP lookups
system.cpu.branchPred.usedRAS                 1050649                       # Number of times the RAS was used to get a target.
system.cpu.branchPredindirectMispredicted         1111                       # Number of mispredicted indirect branches.
system.cpu.committedInsts                   100000001                       # Number of instructions committed
system.cpu.committedOps                     109431937                       # Number of ops (including micro ops) committed
system.cpu.cpi                               1.110613                       # CPI: cycles per instruction
system.cpu.discardedOps                        705454                       # Number of ops (including micro ops) which were discarded before commit
system.cpu.dtb.accesses                             0                       # DTB accesses
system.cpu.dtb.align_faults                         0                       # Number of TLB faults due to alignment restrictions
system.cpu.dtb.domain_faults                        0                       # Number of TLB faults due to domain restrictions
system.cpu.dtb.flush_entries                        0                       # Number of entries that have been flushed from TLB
system.cpu.dtb.flush_tlb                            0                       # Number of times complete TLB was flushed
system.cpu.dtb.flush_tlb_asid                       0                       # Number of times TLB was flushed by ASID
system.cpu.dtb.flush_tlb_mva                        0                       # Number of times TLB was flushed by MVA
system.cpu.dtb.flush_tlb_mva_asid                   0                       # Number of times TLB was flushed by MVA & ASID
system.cpu.dtb.hits                                 0                       # DTB hits
system.cpu.dtb.inst_accesses                        0                       # ITB inst accesses
system.cpu.dtb.inst_hits                            0                       # ITB inst hits
system.cpu.dtb.inst_misses                          0                       # ITB inst misses
system.cpu.dtb.misses                               0                       # DTB misses
system.cpu.dtb.perms_faults                         0                       # Number of TLB faults due to permissions restrictions
system.cpu.dtb.prefetch_faults                      0                       # Number of TLB faults due to prefetch
system.cpu.dtb.read_accesses                        0                       # DTB read accesses
system.cpu.dtb.read_hits                            0                       # DTB read hits
system.cpu.dtb.read_misses                          0                       # DTB read misses
system.cpu.dtb.stage2_mmu.stage2_tlb.accesses            0                       # DTB accesses
system.cpu.dtb.stage2_mmu.stage2_tlb.align_faults            0                       # Number of TLB faults due to alignment restrictions
system.cpu.dtb.stage2_mmu.stage2_tlb.domain_faults            0                       # Number of TLB faults due to domain restrictions
system.cpu.dtb.stage2_mmu.stage2_tlb.flush_entries            0                       # Number of entries that have been flushed from TLB
system.cpu.dtb.stage2_mmu.stage2_tlb.flush_tlb            0                       # Number of times complete TLB was flushed
system.cpu.dtb.stage2_mmu.stage2_tlb.flush_tlb_asid            0                       # Number of times TLB was flushed by ASID
system.cpu.dtb.stage2_mmu.stage2_tlb.flush_tlb_mva            0                       # Number of times TLB was flushed by MVA
system.cpu.dtb.stage2_mmu.stage2_tlb.flush_tlb_mva_asid            0                       # Number of times TLB was flushed by MVA & ASID
system.cpu.dtb.stage2_mmu.stage2_tlb.hits            0                       # DTB hits
system.cpu.dtb.stage2_mmu.stage2_tlb.inst_accesses            0                       # ITB inst accesses
system.cpu.dtb.stage2_mmu.stage2_tlb.inst_hits            0                       # ITB inst hits
system.cpu.dtb.stage2_mmu.stage2_tlb.inst_misses            0                       # ITB inst misses
system.cpu.dtb.stage2_mmu.stage2_tlb.misses            0                       # DTB misses
system.cpu.dtb.stage2_mmu.stage2_tlb.perms_faults            0                       # Number of TLB faults due to permissions restrictions
system.cpu.dtb.stage2_mmu.stage2_tlb.prefetch_faults            0                       # Number of TLB faults due to prefetch
system.cpu.dtb.stage2_mmu.stage2_tlb.read_accesses            0                       # DTB read accesses
system.cpu.dtb.stage2_mmu.stage2_tlb.read_hits            0                       # DTB read hits
system.cpu.dtb.stage2_mmu.stage2_tlb.read_misses            0                       # DTB read misses
system.cpu.dtb.stage2_mmu.stage2_tlb.walker.walkRequestOrigin_Requested::Data            0                       # Table walker requests started/completed, data/inst
system.cpu.dtb.stage2_mmu.stage2_tlb.walker.walkRequestOrigin_Requested::Inst            0                       # Table walker requests started/completed, data/inst
system.cpu.dtb.stage2_mmu.stage2_tlb.walker.walkRequestOrigin_Requested::total            0                       # Table walker requests started/completed, data/inst
system.cpu.dtb.stage2_mmu.stage2_tlb.walker.walkRequestOrigin_Completed::Data            0                       # Table walker requests started/completed, data/inst
system.cpu.dtb.stage2_mmu.stage2_tlb.walker.walkRequestOrigin_Completed::Inst            0                       # Table walker requests started/completed, data/inst
system.cpu.dtb.stage2_mmu.stage2_tlb.walker.walkRequestOrigin_Completed::total            0                       # Table walker requests started/completed, data/inst
system.cpu.dtb.stage2_mmu.stage2_tlb.walker.walkRequestOrigin::total            0                       # Table walker requests started/completed, data/inst
system.cpu.dtb.stage2_mmu.stage2_tlb.walker.walks            0                       # Table walker walks requested
system.cpu.dtb.stage2_mmu.stage2_tlb.write_accesses            0                       # DTB write accesses
system.cpu.dtb.stage2_mmu.stage2_tlb.write_hits            0                       # DTB write hits
system.cpu.dtb.stage2_mmu.stage2_tlb.write_misses            0                       # DTB write misses
system.cpu.dtb.walker.walkRequestOrigin_Requested::Data            0                       # Table walker requests started/completed, data/inst
system.cpu.dtb.walker.walkRequestOrigin_Requested::Inst            0                       # Table walker requests started/completed, data/inst
system.cpu.dtb.walker.walkRequestOrigin_Requested::total            0                       # Table walker requests started/completed, data/inst
system.cpu.dtb.walker.walkRequestOrigin_Completed::Data            0                       # Table walker requests started/completed, data/inst
system.cpu.dtb.walker.walkRequestOrigin_Completed::Inst            0                       # Table walker requests started/completed, data/inst
system.cpu.dtb.walker.walkRequestOrigin_Completed::total            0                       # Table walker requests started/completed, data/inst
system.cpu.dtb.walker.walkRequestOrigin::total            0                       # Table walker requests started/completed, data/inst
system.cpu.dtb.walker.walks                         0                       # Table walker walks requested
system.cpu.dtb.write_accesses                       0                       # DTB write accesses
system.cpu.dtb.write_hits                           0                       # DTB write hits
system.cpu.dtb.write_misses                         0                       # DTB write misses
system.cpu.fetch2.amo_instructions                  0                       # Number of memory atomic instructions successfully decoded
system.cpu.fetch2.fp_instructions                   0                       # Number of floating point instructions successfully decoded
system.cpu.fetch2.int_instructions           49981365                       # Number of integer instructions successfully decoded
system.cpu.fetch2.load_instructions          17238248                       # Number of memory load instructions successfully decoded
system.cpu.fetch2.store_instructions         10039729                       # Number of memory store instructions successfully decoded
system.cpu.fetch2.vec_instructions                  0                       # Number of SIMD instructions successfully decoded
system.cpu.idleCycles                         2668586                       # Total number of cycles that the object has spent stopped
system.cpu.ipc                               0.900404                       # IPC: instructions per cycle
system.cpu.itb.accesses                             0                       # DTB accesses
system.cpu.itb.align_faults                         0                       # Number of TLB faults due to alignment restrictions
system.cpu.itb.domain_faults                        0                       # Number of TLB faults due to domain restrictions
system.cpu.itb.flush_entries                        0                       # Number of entries that have been flushed from TLB
system.cpu.itb.flush_tlb                            0                       # Number of times complete TLB was flushed
system.cpu.itb.flush_tlb_asid                       0                       # Number of times TLB was flushed by ASID
system.cpu.itb.flush_tlb_mva                        0                       # Number of times TLB was flushed by MVA
system.cpu.itb.flush_tlb_mva_asid                   0                       # Number of times TLB was flushed by MVA & ASID
system.cpu.itb.hits                                 0                       # DTB hits
system.cpu.itb.inst_accesses                        0                       # ITB inst accesses
system.cpu.itb.inst_hits                            0                       # ITB inst hits
system.cpu.itb.inst_misses                          0                       # ITB inst misses
system.cpu.itb.misses                               0                       # DTB misses
system.cpu.itb.perms_faults                         0                       # Number of TLB faults due to permissions restrictions
system.cpu.itb.prefetch_faults                      0                       # Number of TLB faults due to prefetch
system.cpu.itb.read_accesses                        0                       # DTB read accesses
system.cpu.itb.read_hits                            0                       # DTB read hits
system.cpu.itb.read_misses                          0                       # DTB read misses
system.cpu.itb.stage2_mmu.stage2_tlb.accesses            0                       # DTB accesses
system.cpu.itb.stage2_mmu.stage2_tlb.align_faults            0                       # Number of TLB faults due to alignment restrictions
system.cpu.itb.stage2_mmu.stage2_tlb.domain_faults            0                       # Number of TLB faults due to domain restrictions
system.cpu.itb.stage2_mmu.stage2_tlb.flush_entries            0                       # Number of entries that have been flushed from TLB
system.cpu.itb.stage2_mmu.stage2_tlb.flush_tlb            0                       # Number of times complete TLB was flushed
system.cpu.itb.stage2_mmu.stage2_tlb.flush_tlb_asid            0                       # Number of times TLB was flushed by ASID
system.cpu.itb.stage2_mmu.stage2_tlb.flush_tlb_mva            0                       # Number of times TLB was flushed by MVA
system.cpu.itb.stage2_mmu.stage2_tlb.flush_tlb_mva_asid            0                       # Number of times TLB was flushed by MVA & ASID
system.cpu.itb.stage2_mmu.stage2_tlb.hits            0                       # DTB hits
system.cpu.itb.stage2_mmu.stage2_tlb.inst_accesses            0                       # ITB inst accesses
system.cpu.itb.stage2_mmu.stage2_tlb.inst_hits            0                       # ITB inst hits
system.cpu.itb.stage2_mmu.stage2_tlb.inst_misses            0                       # ITB inst misses
system.cpu.itb.stage2_mmu.stage2_tlb.misses            0                       # DTB misses
system.cpu.itb.stage2_mmu.stage2_tlb.perms_faults            0                       # Number of TLB faults due to permissions restrictions
system.cpu.itb.stage2_mmu.stage2_tlb.prefetch_faults            0                       # Number of TLB faults due to prefetch
system.cpu.itb.stage2_mmu.stage2_tlb.read_accesses            0                       # DTB read accesses
system.cpu.itb.stage2_mmu.stage2_tlb.read_hits            0                       # DTB read hits
system.cpu.itb.stage2_mmu.stage2_tlb.read_misses            0                       # DTB read misses
system.cpu.itb.stage2_mmu.stage2_tlb.walker.walkRequestOrigin_Requested::Data            0                       # Table walker requests started/completed, data/inst
system.cpu.itb.stage2_mmu.stage2_tlb.walker.walkRequestOrigin_Requested::Inst            0                       # Table walker requests started/completed, data/inst
system.cpu.itb.stage2_mmu.stage2_tlb.walker.walkRequestOrigin_Requested::total            0                       # Table walker requests started/completed, data/inst
system.cpu.itb.stage2_mmu.stage2_tlb.walker.walkRequestOrigin_Completed::Data            0                       # Table walker requests started/completed, data/inst
system.cpu.itb.stage2_mmu.stage2_tlb.walker.walkRequestOrigin_Completed::Inst            0                       # Table walker requests started/completed, data/inst
system.cpu.itb.stage2_mmu.stage2_tlb.walker.walkRequestOrigin_Completed::total            0                       # Table walker requests started/completed, data/inst
system.cpu.itb.stage2_mmu.stage2_tlb.walker.walkRequestOrigin::total            0                       # Table walker requests started/completed, data/inst
system.cpu.itb.stage2_mmu.stage2_tlb.walker.walks            0                       # Table walker walks requested
system.cpu.itb.stage2_mmu.stage2_tlb.write_accesses            0                       # DTB write accesses
system.cpu.itb.stage2_mmu.stage2_tlb.write_hits            0                       # DTB write hits
system.cpu.itb.stage2_mmu.stage2_tlb.write_misses            0                       # DTB write misses
system.cpu.itb.walker.walkRequestOrigin_Requested::Data            0                       # Table walker requests started/completed, data/inst
system.cpu.itb.walker.walkRequestOrigin_Requested::Inst            0                       # Table walker requests started/completed, data/inst
system.cpu.itb.walker.walkRequestOrigin_Requested::total            0                       # Table walker requests started/completed, data/inst
system.cpu.itb.walker.walkRequestOrigin_Completed::Data            0                       # Table walker requests started/completed, data/inst
system.cpu.itb.walker.walkRequestOrigin_Completed::Inst            0                       # Table walker requests started/completed, data/inst
system.cpu.itb.walker.walkRequestOrigin_Completed::total            0                       # Table walker requests started/completed, data/inst
system.cpu.itb.walker.walkRequestOrigin::total            0                       # Table walker requests started/completed, data/inst
system.cpu.itb.walker.walks                         0                       # Table walker walks requested
system.cpu.itb.write_accesses                       0                       # DTB write accesses
system.cpu.itb.write_hits                           0                       # DTB write hits
system.cpu.itb.write_misses                         0                       # DTB write misses
system.cpu.numCycles                        111061268                       # number of cpu cycles simulated
system.cpu.numFetchSuspends                         0                       # Number of times Execute suspended instruction fetching
system.cpu.numWorkItemsCompleted                    0                       # number of work items this cpu completed
system.cpu.numWorkItemsStarted                      0                       # number of work items this cpu started
system.cpu.op_class_0::No_OpClass                   0      0.00%      0.00% # Class of committed instruction
system.cpu.op_class_0::IntAlu                72955303     66.67%     66.67% # Class of committed instruction
system.cpu.op_class_0::IntMult                 568365      0.52%     67.19% # Class of committed instruction
system.cpu.op_class_0::IntDiv                       0      0.00%     67.19% # Class of committed instruction
system.cpu.op_class_0::FloatAdd                     0      0.00%     67.19% # Class of committed instruction
system.cpu.op_class_0::FloatCmp                     0      0.00%     67.19% # Class of committed instruction
system.cpu.op_class_0::FloatCvt                     0      0.00%     67.19% # Class of committed instruction
system.cpu.op_class_0::FloatMult                    0      0.00%     67.19% # Class of committed instruction
system.cpu.op_class_0::FloatMultAcc                 0      0.00%     67.19% # Class of committed instruction
system.cpu.op_class_0::FloatDiv                     0      0.00%     67.19% # Class of committed instruction
system.cpu.op_class_0::FloatMisc                    0      0.00%     67.19% # Class of committed instruction
system.cpu.op_class_0::FloatSqrt                    0      0.00%     67.19% # Class of committed instruction
system.cpu.op_class_0::SimdAdd                 241252      0.22%     67.41% # Class of committed instruction
system.cpu.op_class_0::SimdAddAcc                   0      0.00%     67.41% # Class of committed instruction
system.cpu.op_class_0::SimdAlu                 154720      0.14%     67.55% # Class of committed instruction
system.cpu.op_class_0::SimdCmp                 120626      0.11%     67.66% # Class of committed instruction
system.cpu.op_class_0::SimdCvt                      0      0.00%     67.66% # Class of committed instruction
system.cpu.op_class_0::SimdMisc                 44544      0.04%     67.70% # Class of committed instruction
system.cpu.op_class_0::SimdMult                     0      0.00%     67.70% # Class of committed instruction
system.cpu.op_class_0::SimdMultAcc                  0      0.00%     67.70% # Class of committed instruction
system.cpu.op_class_0::SimdShift                    0      0.00%     67.70% # Class of committed instruction
system.cpu.op_class_0::SimdShiftAcc                 0      0.00%     67.70% # Class of committed instruction
system.cpu.op_class_0::SimdDiv                      0      0.00%     67.70% # Class of committed instruction
system.cpu.op_class_0::SimdSqrt                     0      0.00%     67.70% # Class of committed instruction
system.cpu.op_class_0::SimdFloatAdd                 0      0.00%     67.70% # Class of committed instruction
system.cpu.op_class_0::SimdFloatAlu                 0      0.00%     67.70% # Class of committed instruction
system.cpu.op_class_0::SimdFloatCmp                 0      0.00%     67.70% # Class of committed instruction
system.cpu.op_class_0::SimdFloatCvt                 0      0.00%     67.70% # Class of committed instruction
system.cpu.op_class_0::SimdFloatDiv                 0      0.00%     67.70% # Class of committed instruction
system.cpu.op_class_0::SimdFloatMisc           166465      0.15%     67.85% # Class of committed instruction
system.cpu.op_class_0::SimdFloatMult                0      0.00%     67.85% # Class of committed instruction
system.cpu.op_class_0::SimdFloatMultAcc             0      0.00%     67.85% # Class of committed instruction
system.cpu.op_class_0::SimdFloatSqrt                0      0.00%     67.85% # Class of committed instruction
system.cpu.op_class_0::SimdReduceAdd                0      0.00%     67.85% # Class of committed instruction
system.cpu.op_class_0::SimdReduceAlu                0      0.00%     67.85% # Class of committed instruction
system.cpu.op_class_0::SimdReduceCmp                0      0.00%     67.85% # Class of committed instruction
system.cpu.op_class_0::SimdFloatReduceAdd            0      0.00%     67.85% # Class of committed instruction
system.cpu.op_class_0::SimdFloatReduceCmp            0      0.00%     67.85% # Class of committed instruction
system.cpu.op_class_0::SimdAes                      0      0.00%     67.85% # Class of committed instruction
system.cpu.op_class_0::SimdAesMix                   0      0.00%     67.85% # Class of committed instruction
system.cpu.op_class_0::SimdSha1Hash                 0      0.00%     67.85% # Class of committed instruction
system.cpu.op_class_0::SimdSha1Hash2                0      0.00%     67.85% # Class of committed instruction
system.cpu.op_class_0::SimdSha256Hash               0      0.00%     67.85% # Class of committed instruction
system.cpu.op_class_0::SimdSha256Hash2              0      0.00%     67.85% # Class of committed instruction
system.cpu.op_class_0::SimdShaSigma2                0      0.00%     67.85% # Class of committed instruction
system.cpu.op_class_0::SimdShaSigma3                0      0.00%     67.85% # Class of committed instruction
system.cpu.op_class_0::SimdPredAlu                  0      0.00%     67.85% # Class of committed instruction
system.cpu.op_class_0::MemRead               20646465     18.87%     86.72% # Class of committed instruction
system.cpu.op_class_0::MemWrite              14534197     13.28%    100.00% # Class of committed instruction
system.cpu.op_class_0::FloatMemRead                 0      0.00%    100.00% # Class of committed instruction
system.cpu.op_class_0::FloatMemWrite                0      0.00%    100.00% # Class of committed instruction
system.cpu.op_class_0::IprAccess                    0      0.00%    100.00% # Class of committed instruction
system.cpu.op_class_0::InstPrefetch                 0      0.00%    100.00% # Class of committed instruction
system.cpu.op_class_0::total                109431937                       # Class of committed instruction
system.cpu.tickCycles                       108392682                       # Number of cycles that the object actually ticked
system.cpu.workload.numSyscalls                    86                       # Number of system calls
system.membus.snoop_filter.hit_multi_requests            0                       # Number of requests hitting in the snoop filter with multiple (>1) holders of the requested data.
system.membus.snoop_filter.hit_multi_snoops            0                       # Number of snoops hitting in the snoop filter with multiple (>1) holders of the requested data.
system.membus.snoop_filter.hit_single_requests         1744                       # Number of requests hitting in the snoop filter with a single holder of the requested data.
system.membus.snoop_filter.hit_single_snoops            0                       # Number of snoops hitting in the snoop filter with a single holder of the requested data.
system.membus.snoop_filter.tot_requests         11860                       # Total number of requests made to the snoop filter.
system.membus.snoop_filter.tot_snoops               0                       # Total number of snoops made to the snoop filter.
system.tol2bus.snoop_filter.hit_multi_requests          231                       # Number of requests hitting in the snoop filter with multiple (>1) holders of the requested data.
system.tol2bus.snoop_filter.hit_multi_snoops            0                       # Number of snoops hitting in the snoop filter with multiple (>1) holders of the requested data.
system.tol2bus.snoop_filter.hit_single_requests        34132                       # Number of requests hitting in the snoop filter with a single holder of the requested data.
system.tol2bus.snoop_filter.hit_single_snoops          181                       # Number of snoops hitting in the snoop filter with a single holder of the requested data.
system.tol2bus.snoop_filter.tot_requests        68700                       # Total number of requests made to the snoop filter.
system.tol2bus.snoop_filter.tot_snoops            181                       # Total number of snoops made to the snoop filter.
system.membus.pwrStateResidencyTicks::UNDEFINED  55530634000                       # Cumulative time (in ticks) in various power states
system.membus.trans_dist::ReadResp                403                       # Transaction distribution
system.membus.trans_dist::WritebackDirty         1678                       # Transaction distribution
system.membus.trans_dist::CleanEvict               66                       # Transaction distribution
system.membus.trans_dist::ReadExReq              9713                       # Transaction distribution
system.membus.trans_dist::ReadExResp             9713                       # Transaction distribution
system.membus.trans_dist::ReadSharedReq           403                       # Transaction distribution
system.membus.pkt_count_system.l2.mem_side::system.mem_ctrls.port        21976                       # Packet count per connected master and slave (bytes)
system.membus.pkt_count::total                  21976                       # Packet count per connected master and slave (bytes)
system.membus.pkt_size_system.l2.mem_side::system.mem_ctrls.port      3019264                       # Cumulative packet size per connected master and slave (bytes)
system.membus.pkt_size::total                 3019264                       # Cumulative packet size per connected master and slave (bytes)
system.membus.snoops                                0                       # Total snoops (count)
system.membus.snoopTraffic                          0                       # Total snoop traffic (bytes)
system.membus.snoop_fanout::samples             10116                       # Request fanout histogram
system.membus.snoop_fanout::mean                    0                       # Request fanout histogram
system.membus.snoop_fanout::stdev                   0                       # Request fanout histogram
system.membus.snoop_fanout::underflows              0      0.00%      0.00% # Request fanout histogram
system.membus.snoop_fanout::0                   10116    100.00%    100.00% # Request fanout histogram
system.membus.snoop_fanout::1                       0      0.00%    100.00% # Request fanout histogram
system.membus.snoop_fanout::overflows               0      0.00%    100.00% # Request fanout histogram
system.membus.snoop_fanout::min_value               0                       # Request fanout histogram
system.membus.snoop_fanout::max_value               0                       # Request fanout histogram
system.membus.snoop_fanout::total               10116                       # Request fanout histogram
system.membus.respLayer1.occupancy          176494000                       # Layer occupancy (ticks)
system.membus.respLayer1.utilization              0.3                       # Layer utilization (%)
system.membus.reqLayer0.occupancy            41282500                       # Layer occupancy (ticks)
system.membus.reqLayer0.utilization               0.1                       # Layer utilization (%)
system.tol2bus.pwrStateResidencyTicks::UNDEFINED  55530634000                       # Cumulative time (in ticks) in various power states
system.tol2bus.trans_dist::ReadResp             23782                       # Transaction distribution
system.tol2bus.trans_dist::WritebackDirty        30529                       # Transaction distribution
system.tol2bus.trans_dist::WritebackClean          517                       # Transaction distribution
system.tol2bus.trans_dist::CleanEvict            5005                       # Transaction distribution
system.tol2bus.trans_dist::ReadExReq            10792                       # Transaction distribution
system.tol2bus.trans_dist::ReadExResp           10792                       # Transaction distribution
system.tol2bus.trans_dist::ReadCleanReq           709                       # Transaction distribution
system.tol2bus.trans_dist::ReadSharedReq        23073                       # Transaction distribution
system.tol2bus.pkt_count_system.cpu.icache.mem_side::system.l2.cpu_side         1935                       # Packet count per connected master and slave (bytes)
system.tol2bus.pkt_count_system.cpu.dcache.mem_side::system.l2.cpu_side       101339                       # Packet count per connected master and slave (bytes)
system.tol2bus.pkt_count::total                103274                       # Packet count per connected master and slave (bytes)
system.tol2bus.pkt_size_system.cpu.icache.mem_side::system.l2.cpu_side       313856                       # Cumulative packet size per connected master and slave (bytes)
system.tol2bus.pkt_size_system.cpu.dcache.mem_side::system.l2.cpu_side     16055296                       # Cumulative packet size per connected master and slave (bytes)
system.tol2bus.pkt_size::total               16369152                       # Cumulative packet size per connected master and slave (bytes)
system.tol2bus.snoops                            1925                       # Total snoops (count)
system.tol2bus.snoopTraffic                    429568                       # Total snoop traffic (bytes)
system.tol2bus.snoop_fanout::samples            36499                       # Request fanout histogram
system.tol2bus.snoop_fanout::mean            0.011452                       # Request fanout histogram
system.tol2bus.snoop_fanout::stdev           0.106403                       # Request fanout histogram
system.tol2bus.snoop_fanout::underflows             0      0.00%      0.00% # Request fanout histogram
system.tol2bus.snoop_fanout::0                  36081     98.85%     98.85% # Request fanout histogram
system.tol2bus.snoop_fanout::1                    418      1.15%    100.00% # Request fanout histogram
system.tol2bus.snoop_fanout::2                      0      0.00%    100.00% # Request fanout histogram
system.tol2bus.snoop_fanout::overflows              0      0.00%    100.00% # Request fanout histogram
system.tol2bus.snoop_fanout::min_value              0                       # Request fanout histogram
system.tol2bus.snoop_fanout::max_value              1                       # Request fanout histogram
system.tol2bus.snoop_fanout::total              36499                       # Request fanout histogram
system.tol2bus.reqLayer0.occupancy          151822000                       # Layer occupancy (ticks)
system.tol2bus.reqLayer0.utilization              0.3                       # Layer utilization (%)
system.tol2bus.respLayer1.occupancy         152394995                       # Layer occupancy (ticks)
system.tol2bus.respLayer1.utilization             0.3                       # Layer utilization (%)
system.tol2bus.respLayer0.occupancy           3190500                       # Layer occupancy (ticks)
system.tol2bus.respLayer0.utilization             0.0                       # Layer utilization (%)
system.voltage_domain.voltage                       1                       # Voltage in Volts
system.clk_domain.clock                          1000                       # Clock period in ticks
system.l2.pwrStateResidencyTicks::UNDEFINED  55530634000                       # Cumulative time (in ticks) in various power states
system.l2.demand_hits::.cpu.inst                  477                       # number of demand (read+write) hits
system.l2.demand_hits::.cpu.data                23976                       # number of demand (read+write) hits
system.l2.demand_hits::total                    24453                       # number of demand (read+write) hits
system.l2.overall_hits::.cpu.inst                 477                       # number of overall hits
system.l2.overall_hits::.cpu.data               23976                       # number of overall hits
system.l2.overall_hits::total                   24453                       # number of overall hits
system.l2.demand_misses::.cpu.inst                232                       # number of demand (read+write) misses
system.l2.demand_misses::.cpu.data               9889                       # number of demand (read+write) misses
system.l2.demand_misses::total                  10121                       # number of demand (read+write) misses
system.l2.overall_misses::.cpu.inst               232                       # number of overall misses
system.l2.overall_misses::.cpu.data              9889                       # number of overall misses
system.l2.overall_misses::total                 10121                       # number of overall misses
system.l2.demand_miss_latency::.cpu.inst     21929000                       # number of demand (read+write) miss cycles
system.l2.demand_miss_latency::.cpu.data   1009170000                       # number of demand (read+write) miss cycles
system.l2.demand_miss_latency::total       1031099000                       # number of demand (read+write) miss cycles
system.l2.overall_miss_latency::.cpu.inst     21929000                       # number of overall miss cycles
system.l2.overall_miss_latency::.cpu.data   1009170000                       # number of overall miss cycles
system.l2.overall_miss_latency::total      1031099000                       # number of overall miss cycles
system.l2.demand_accesses::.cpu.inst              709                       # number of demand (read+write) accesses
system.l2.demand_accesses::.cpu.data            33865                       # number of demand (read+write) accesses
system.l2.demand_accesses::total                34574                       # number of demand (read+write) accesses
system.l2.overall_accesses::.cpu.inst             709                       # number of overall (read+write) accesses
system.l2.overall_accesses::.cpu.data           33865                       # number of overall (read+write) accesses
system.l2.overall_accesses::total               34574                       # number of overall (read+write) accesses
system.l2.demand_miss_rate::.cpu.inst        0.327221                       # miss rate for demand accesses
system.l2.demand_miss_rate::.cpu.data        0.292012                       # miss rate for demand accesses
system.l2.demand_miss_rate::total            0.292734                       # miss rate for demand accesses
system.l2.overall_miss_rate::.cpu.inst       0.327221                       # miss rate for overall accesses
system.l2.overall_miss_rate::.cpu.data       0.292012                       # miss rate for overall accesses
system.l2.overall_miss_rate::total           0.292734                       # miss rate for overall accesses
system.l2.demand_avg_miss_latency::.cpu.inst 94521.551724                       # average overall miss latency
system.l2.demand_avg_miss_latency::.cpu.data 102049.752250                       # average overall miss latency
system.l2.demand_avg_miss_latency::total 101877.186049                       # average overall miss latency
system.l2.overall_avg_miss_latency::.cpu.inst 94521.551724                       # average overall miss latency
system.l2.overall_avg_miss_latency::.cpu.data 102049.752250                       # average overall miss latency
system.l2.overall_avg_miss_latency::total 101877.186049                       # average overall miss latency
system.l2.blocked_cycles::no_mshrs                  0                       # number of cycles access was blocked
system.l2.blocked_cycles::no_targets                0                       # number of cycles access was blocked
system.l2.blocked::no_mshrs                         0                       # number of cycles access was blocked
system.l2.blocked::no_targets                       0                       # number of cycles access was blocked
system.l2.avg_blocked_cycles::no_mshrs            nan                       # average number of cycles each access was blocked
system.l2.avg_blocked_cycles::no_targets          nan                       # average number of cycles each access was blocked
system.l2.writebacks::.writebacks                1678                       # number of writebacks
system.l2.writebacks::total                      1678                       # number of writebacks
system.l2.demand_mshr_hits::.cpu.data               5                       # number of demand (read+write) MSHR hits
system.l2.demand_mshr_hits::total                   5                       # number of demand (read+write) MSHR hits
system.l2.overall_mshr_hits::.cpu.data              5                       # number of overall MSHR hits
system.l2.overall_mshr_hits::total                  5                       # number of overall MSHR hits
system.l2.demand_mshr_misses::.cpu.inst           232                       # number of demand (read+write) MSHR misses
system.l2.demand_mshr_misses::.cpu.data          9884                       # number of demand (read+write) MSHR misses
system.l2.demand_mshr_misses::total             10116                       # number of demand (read+write) MSHR misses
system.l2.overall_mshr_misses::.cpu.inst          232                       # number of overall MSHR misses
system.l2.overall_mshr_misses::.cpu.data         9884                       # number of overall MSHR misses
system.l2.overall_mshr_misses::total            10116                       # number of overall MSHR misses
system.l2.demand_mshr_miss_latency::.cpu.inst     19609000                       # number of demand (read+write) MSHR miss cycles
system.l2.demand_mshr_miss_latency::.cpu.data    909910000                       # number of demand (read+write) MSHR miss cycles
system.l2.demand_mshr_miss_latency::total    929519000                       # number of demand (read+write) MSHR miss cycles
system.l2.overall_mshr_miss_latency::.cpu.inst     19609000                       # number of overall MSHR miss cycles
system.l2.overall_mshr_miss_latency::.cpu.data    909910000                       # number of overall MSHR miss cycles
system.l2.overall_mshr_miss_latency::total    929519000                       # number of overall MSHR miss cycles
system.l2.demand_mshr_miss_rate::.cpu.inst     0.327221                       # mshr miss rate for demand accesses
system.l2.demand_mshr_miss_rate::.cpu.data     0.291865                       # mshr miss rate for demand accesses
system.l2.demand_mshr_miss_rate::total       0.292590                       # mshr miss rate for demand accesses
system.l2.overall_mshr_miss_rate::.cpu.inst     0.327221                       # mshr miss rate for overall accesses
system.l2.overall_mshr_miss_rate::.cpu.data     0.291865                       # mshr miss rate for overall accesses
system.l2.overall_mshr_miss_rate::total      0.292590                       # mshr miss rate for overall accesses
system.l2.demand_avg_mshr_miss_latency::.cpu.inst 84521.551724                       # average overall mshr miss latency
system.l2.demand_avg_mshr_miss_latency::.cpu.data 92058.883043                       # average overall mshr miss latency
system.l2.demand_avg_mshr_miss_latency::total 91886.022143                       # average overall mshr miss latency
system.l2.overall_avg_mshr_miss_latency::.cpu.inst 84521.551724                       # average overall mshr miss latency
system.l2.overall_avg_mshr_miss_latency::.cpu.data 92058.883043                       # average overall mshr miss latency
system.l2.overall_avg_mshr_miss_latency::total 91886.022143                       # average overall mshr miss latency
system.l2.replacements                           1925                       # number of replacements
system.l2.WritebackDirty_hits::.writebacks        28851                       # number of WritebackDirty hits
system.l2.WritebackDirty_hits::total            28851                       # number of WritebackDirty hits
system.l2.WritebackDirty_accesses::.writebacks        28851                       # number of WritebackDirty accesses(hits+misses)
system.l2.WritebackDirty_accesses::total        28851                       # number of WritebackDirty accesses(hits+misses)
system.l2.WritebackClean_hits::.writebacks          503                       # number of WritebackClean hits
system.l2.WritebackClean_hits::total              503                       # number of WritebackClean hits
system.l2.WritebackClean_accesses::.writebacks          503                       # number of WritebackClean accesses(hits+misses)
system.l2.WritebackClean_accesses::total          503                       # number of WritebackClean accesses(hits+misses)
system.l2.ReadExReq_hits::.cpu.data              1079                       # number of ReadExReq hits
system.l2.ReadExReq_hits::total                  1079                       # number of ReadExReq hits
system.l2.ReadExReq_misses::.cpu.data            9713                       # number of ReadExReq misses
system.l2.ReadExReq_misses::total                9713                       # number of ReadExReq misses
system.l2.ReadExReq_miss_latency::.cpu.data    990855000                       # number of ReadExReq miss cycles
system.l2.ReadExReq_miss_latency::total     990855000                       # number of ReadExReq miss cycles
system.l2.ReadExReq_accesses::.cpu.data         10792                       # number of ReadExReq accesses(hits+misses)
system.l2.ReadExReq_accesses::total             10792                       # number of ReadExReq accesses(hits+misses)
system.l2.ReadExReq_miss_rate::.cpu.data     0.900019                       # miss rate for ReadExReq accesses
system.l2.ReadExReq_miss_rate::total         0.900019                       # miss rate for ReadExReq accesses
system.l2.ReadExReq_avg_miss_latency::.cpu.data 102013.281170                       # average ReadExReq miss latency
system.l2.ReadExReq_avg_miss_latency::total 102013.281170                       # average ReadExReq miss latency
system.l2.ReadExReq_mshr_misses::.cpu.data         9713                       # number of ReadExReq MSHR misses
system.l2.ReadExReq_mshr_misses::total           9713                       # number of ReadExReq MSHR misses
system.l2.ReadExReq_mshr_miss_latency::.cpu.data    893725000                       # number of ReadExReq MSHR miss cycles
system.l2.ReadExReq_mshr_miss_latency::total    893725000                       # number of ReadExReq MSHR miss cycles
system.l2.ReadExReq_mshr_miss_rate::.cpu.data     0.900019                       # mshr miss rate for ReadExReq accesses
system.l2.ReadExReq_mshr_miss_rate::total     0.900019                       # mshr miss rate for ReadExReq accesses
system.l2.ReadExReq_avg_mshr_miss_latency::.cpu.data 92013.281170                       # average ReadExReq mshr miss latency
system.l2.ReadExReq_avg_mshr_miss_latency::total 92013.281170                       # average ReadExReq mshr miss latency
system.l2.ReadCleanReq_hits::.cpu.inst            477                       # number of ReadCleanReq hits
system.l2.ReadCleanReq_hits::total                477                       # number of ReadCleanReq hits
system.l2.ReadCleanReq_misses::.cpu.inst          232                       # number of ReadCleanReq misses
system.l2.ReadCleanReq_misses::total              232                       # number of ReadCleanReq misses
system.l2.ReadCleanReq_miss_latency::.cpu.inst     21929000                       # number of ReadCleanReq miss cycles
system.l2.ReadCleanReq_miss_latency::total     21929000                       # number of ReadCleanReq miss cycles
system.l2.ReadCleanReq_accesses::.cpu.inst          709                       # number of ReadCleanReq accesses(hits+misses)
system.l2.ReadCleanReq_accesses::total            709                       # number of ReadCleanReq accesses(hits+misses)
system.l2.ReadCleanReq_miss_rate::.cpu.inst     0.327221                       # miss rate for ReadCleanReq accesses
system.l2.ReadCleanReq_miss_rate::total      0.327221                       # miss rate for ReadCleanReq accesses
system.l2.ReadCleanReq_avg_miss_latency::.cpu.inst 94521.551724                       # average ReadCleanReq miss latency
system.l2.ReadCleanReq_avg_miss_latency::total 94521.551724                       # average ReadCleanReq miss latency
system.l2.ReadCleanReq_mshr_misses::.cpu.inst          232                       # number of ReadCleanReq MSHR misses
system.l2.ReadCleanReq_mshr_misses::total          232                       # number of ReadCleanReq MSHR misses
system.l2.ReadCleanReq_mshr_miss_latency::.cpu.inst     19609000                       # number of ReadCleanReq MSHR miss cycles
system.l2.ReadCleanReq_mshr_miss_latency::total     19609000                       # number of ReadCleanReq MSHR miss cycles
system.l2.ReadCleanReq_mshr_miss_rate::.cpu.inst     0.327221                       # mshr miss rate for ReadCleanReq accesses
system.l2.ReadCleanReq_mshr_miss_rate::total     0.327221                       # mshr miss rate for ReadCleanReq accesses
system.l2.ReadCleanReq_avg_mshr_miss_latency::.cpu.inst 84521.551724                       # average ReadCleanReq mshr miss latency
system.l2.ReadCleanReq_avg_mshr_miss_latency::total 84521.551724                       # average ReadCleanReq mshr miss latency
system.l2.ReadSharedReq_hits::.cpu.data         22897                       # number of ReadSharedReq hits
system.l2.ReadSharedReq_hits::total             22897                       # number of ReadSharedReq hits
system.l2.ReadSharedReq_misses::.cpu.data          176                       # number of ReadSharedReq misses
system.l2.ReadSharedReq_misses::total             176                       # number of ReadSharedReq misses
system.l2.ReadSharedReq_miss_latency::.cpu.data     18315000                       # number of ReadSharedReq miss cycles
system.l2.ReadSharedReq_miss_latency::total     18315000                       # number of ReadSharedReq miss cycles
system.l2.ReadSharedReq_accesses::.cpu.data        23073                       # number of ReadSharedReq accesses(hits+misses)
system.l2.ReadSharedReq_accesses::total         23073                       # number of ReadSharedReq accesses(hits+misses)
system.l2.ReadSharedReq_miss_rate::.cpu.data     0.007628                       # miss rate for ReadSharedReq accesses
system.l2.ReadSharedReq_miss_rate::total     0.007628                       # miss rate for ReadSharedReq accesses
system.l2.ReadSharedReq_avg_miss_latency::.cpu.data 104062.500000                       # average ReadSharedReq miss latency
system.l2.ReadSharedReq_avg_miss_latency::total 104062.500000                       # average ReadSharedReq miss latency
system.l2.ReadSharedReq_mshr_hits::.cpu.data            5                       # number of ReadSharedReq MSHR hits
system.l2.ReadSharedReq_mshr_hits::total            5                       # number of ReadSharedReq MSHR hits
system.l2.ReadSharedReq_mshr_misses::.cpu.data          171                       # number of ReadSharedReq MSHR misses
system.l2.ReadSharedReq_mshr_misses::total          171                       # number of ReadSharedReq MSHR misses
system.l2.ReadSharedReq_mshr_miss_latency::.cpu.data     16185000                       # number of ReadSharedReq MSHR miss cycles
system.l2.ReadSharedReq_mshr_miss_latency::total     16185000                       # number of ReadSharedReq MSHR miss cycles
system.l2.ReadSharedReq_mshr_miss_rate::.cpu.data     0.007411                       # mshr miss rate for ReadSharedReq accesses
system.l2.ReadSharedReq_mshr_miss_rate::total     0.007411                       # mshr miss rate for ReadSharedReq accesses
system.l2.ReadSharedReq_avg_mshr_miss_latency::.cpu.data 94649.122807                       # average ReadSharedReq mshr miss latency
system.l2.ReadSharedReq_avg_mshr_miss_latency::total 94649.122807                       # average ReadSharedReq mshr miss latency
system.l2.tags.pwrStateResidencyTicks::UNDEFINED  55530634000                       # Cumulative time (in ticks) in various power states
system.l2.tags.tagsinuse                  6634.055341                       # Cycle average of tags in use
system.l2.tags.total_refs                       68464                       # Total number of references to valid blocks.
system.l2.tags.sampled_refs                     10117                       # Sample count of references to valid blocks.
system.l2.tags.avg_refs                      6.767223                       # Average number of references to valid blocks.
system.l2.tags.warmup_cycle                     92000                       # Cycle when the warmup percentage was hit.
system.l2.tags.occ_blocks::.writebacks       0.348480                       # Average occupied blocks per requestor
system.l2.tags.occ_blocks::.cpu.inst       138.511298                       # Average occupied blocks per requestor
system.l2.tags.occ_blocks::.cpu.data      6495.195562                       # Average occupied blocks per requestor
system.l2.tags.occ_percent::.writebacks      0.000043                       # Average percentage of cache occupancy
system.l2.tags.occ_percent::.cpu.inst        0.016908                       # Average percentage of cache occupancy
system.l2.tags.occ_percent::.cpu.data        0.792871                       # Average percentage of cache occupancy
system.l2.tags.occ_percent::total            0.809821                       # Average percentage of cache occupancy
system.l2.tags.occ_task_id_blocks::1024          8192                       # Occupied blocks per task id
system.l2.tags.age_task_id_blocks_1024::0            1                       # Occupied blocks per task id
system.l2.tags.age_task_id_blocks_1024::1            8                       # Occupied blocks per task id
system.l2.tags.age_task_id_blocks_1024::2           98                       # Occupied blocks per task id
system.l2.tags.age_task_id_blocks_1024::3          952                       # Occupied blocks per task id
system.l2.tags.age_task_id_blocks_1024::4         7133                       # Occupied blocks per task id
system.l2.tags.occ_task_id_percent::1024            1                       # Percentage of cache occupancy per task id
system.l2.tags.tag_accesses                    557869                       # Number of tag accesses
system.l2.tags.data_accesses                   557869                       # Number of data accesses
system.cpu_voltage_domain.voltage                   1                       # Voltage in Volts
system.mem_ctrls.pwrStateResidencyTicks::UNDEFINED  55530634000                       # Cumulative time (in ticks) in various power states
system.mem_ctrls.bytes_read::.cpu.inst          59392                       # Number of bytes read from this memory
system.mem_ctrls.bytes_read::.cpu.data        2530304                       # Number of bytes read from this memory
system.mem_ctrls.bytes_read::total            2589696                       # Number of bytes read from this memory
system.mem_ctrls.bytes_inst_read::.cpu.inst        59392                       # Number of instructions bytes read from this memory
system.mem_ctrls.bytes_inst_read::total         59392                       # Number of instructions bytes read from this memory
system.mem_ctrls.bytes_written::.writebacks       429568                       # Number of bytes written to this memory
system.mem_ctrls.bytes_written::total          429568                       # Number of bytes written to this memory
system.mem_ctrls.num_reads::.cpu.inst             232                       # Number of read requests responded to by this memory
system.mem_ctrls.num_reads::.cpu.data            9884                       # Number of read requests responded to by this memory
system.mem_ctrls.num_reads::total               10116                       # Number of read requests responded to by this memory
system.mem_ctrls.num_writes::.writebacks         1678                       # Number of write requests responded to by this memory
system.mem_ctrls.num_writes::total               1678                       # Number of write requests responded to by this memory
system.mem_ctrls.bw_read::.cpu.inst           1069536                       # Total read bandwidth from this memory (bytes/s)
system.mem_ctrls.bw_read::.cpu.data          45565912                       # Total read bandwidth from this memory (bytes/s)
system.mem_ctrls.bw_read::total              46635448                       # Total read bandwidth from this memory (bytes/s)
system.mem_ctrls.bw_inst_read::.cpu.inst      1069536                       # Instruction read bandwidth from this memory (bytes/s)
system.mem_ctrls.bw_inst_read::total          1069536                       # Instruction read bandwidth from this memory (bytes/s)
system.mem_ctrls.bw_write::.writebacks        7735694                       # Write bandwidth from this memory (bytes/s)
system.mem_ctrls.bw_write::total              7735694                       # Write bandwidth from this memory (bytes/s)
system.mem_ctrls.bw_total::.writebacks        7735694                       # Total bandwidth to/from this memory (bytes/s)
system.mem_ctrls.bw_total::.cpu.inst          1069536                       # Total bandwidth to/from this memory (bytes/s)
system.mem_ctrls.bw_total::.cpu.data         45565912                       # Total bandwidth to/from this memory (bytes/s)
system.mem_ctrls.bw_total::total             54371142                       # Total bandwidth to/from this memory (bytes/s)
system.mem_ctrls.avgPriority_.writebacks::samples      6712.00                       # Average QoS priority value for accepted requests
system.mem_ctrls.avgPriority_.cpu.inst::samples       928.00                       # Average QoS priority value for accepted requests
system.mem_ctrls.avgPriority_.cpu.data::samples     39536.00                       # Average QoS priority value for accepted requests
system.mem_ctrls.priorityMinLatency      0.000000018750                       # per QoS priority minimum request to response latency (s)
system.mem_ctrls.priorityMaxLatency      0.013325024750                       # per QoS priority maximum request to response latency (s)
system.mem_ctrls.numReadWriteTurnArounds          334                       # Number of turnarounds from READ to WRITE
system.mem_ctrls.numWriteReadTurnArounds          334                       # Number of turnarounds from WRITE to READ
system.mem_ctrls.numStayReadState               66356                       # Number of times bus staying in READ state
system.mem_ctrls.numStayWriteState               6383                       # Number of times bus staying in WRITE state
system.mem_ctrls.readReqs                       10116                       # Number of read requests accepted
system.mem_ctrls.writeReqs                       1678                       # Number of write requests accepted
system.mem_ctrls.readBursts                     40464                       # Number of DRAM read bursts, including those serviced by the write queue
system.mem_ctrls.writeBursts                     6712                       # Number of DRAM write bursts, including those merged in the write queue
system.mem_ctrls.servicedByWrQ                      0                       # Number of DRAM read bursts serviced by the write queue
system.mem_ctrls.mergedWrBursts                     0                       # Number of DRAM write bursts merged with an existing one
system.mem_ctrls.neitherReadNorWriteReqs            0                       # Number of requests that are neither read nor write
system.mem_ctrls.perBankRdBursts::0              2520                       # Per bank write bursts
system.mem_ctrls.perBankRdBursts::1              2404                       # Per bank write bursts
system.mem_ctrls.perBankRdBursts::2              2392                       # Per bank write bursts
system.mem_ctrls.perBankRdBursts::3              2712                       # Per bank write bursts
system.mem_ctrls.perBankRdBursts::4              2744                       # Per bank write bursts
system.mem_ctrls.perBankRdBursts::5              2448                       # Per bank write bursts
system.mem_ctrls.perBankRdBursts::6              2444                       # Per bank write bursts
system.mem_ctrls.perBankRdBursts::7              2480                       # Per bank write bursts
system.mem_ctrls.perBankRdBursts::8              2484                       # Per bank write bursts
system.mem_ctrls.perBankRdBursts::9              2528                       # Per bank write bursts
system.mem_ctrls.perBankRdBursts::10             2540                       # Per bank write bursts
system.mem_ctrls.perBankRdBursts::11             2544                       # Per bank write bursts
system.mem_ctrls.perBankRdBursts::12             2556                       # Per bank write bursts
system.mem_ctrls.perBankRdBursts::13             2492                       # Per bank write bursts
system.mem_ctrls.perBankRdBursts::14             2624                       # Per bank write bursts
system.mem_ctrls.perBankRdBursts::15             2552                       # Per bank write bursts
system.mem_ctrls.perBankWrBursts::0               405                       # Per bank write bursts
system.mem_ctrls.perBankWrBursts::1               304                       # Per bank write bursts
system.mem_ctrls.perBankWrBursts::2               308                       # Per bank write bursts
system.mem_ctrls.perBankWrBursts::3               528                       # Per bank write bursts
system.mem_ctrls.perBankWrBursts::4               648                       # Per bank write bursts
system.mem_ctrls.perBankWrBursts::5               400                       # Per bank write bursts
system.mem_ctrls.perBankWrBursts::6               396                       # Per bank write bursts
system.mem_ctrls.perBankWrBursts::7               392                       # Per bank write bursts
system.mem_ctrls.perBankWrBursts::8               404                       # Per bank write bursts
system.mem_ctrls.perBankWrBursts::9               404                       # Per bank write bursts
system.mem_ctrls.perBankWrBursts::10              416                       # Per bank write bursts
system.mem_ctrls.perBankWrBursts::11              388                       # Per bank write bursts
system.mem_ctrls.perBankWrBursts::12              392                       # Per bank write bursts
system.mem_ctrls.perBankWrBursts::13              400                       # Per bank write bursts
system.mem_ctrls.perBankWrBursts::14              464                       # Per bank write bursts
system.mem_ctrls.perBankWrBursts::15              444                       # Per bank write bursts
system.mem_ctrls.avgRdQLen                       4.00                       # Average read queue length when enqueuing
system.mem_ctrls.avgWrQLen                      15.20                       # Average write queue length when enqueuing
system.mem_ctrls.totQLat                    988712000                       # Total ticks spent queuing
system.mem_ctrls.totBusLat                  202320000                       # Total ticks spent in databus transfers
system.mem_ctrls.totMemAccLat              1747412000                       # Total ticks spent from burst creation until serviced by the DRAM
system.mem_ctrls.avgQLat                     24434.36                       # Average queueing delay per DRAM burst
system.mem_ctrls.avgBusLat                    5000.00                       # Average bus latency per DRAM burst
system.mem_ctrls.avgMemAccLat                43184.36                       # Average memory access latency per DRAM burst
system.mem_ctrls.numRdRetry                         0                       # Number of times read queue was full causing retry
system.mem_ctrls.numWrRetry                         0                       # Number of times write queue was full causing retry
system.mem_ctrls.readRowHits                    32609                       # Number of row buffer hits during reads
system.mem_ctrls.writeRowHits                    5920                       # Number of row buffer hits during writes
system.mem_ctrls.readRowHitRate                 80.59                       # Row buffer hit rate for reads
system.mem_ctrls.writeRowHitRate                88.20                       # Row buffer hit rate for writes
system.mem_ctrls.readPktSize::0                     0                       # Read request sizes (log2)
system.mem_ctrls.readPktSize::1                     0                       # Read request sizes (log2)
system.mem_ctrls.readPktSize::2                     0                       # Read request sizes (log2)
system.mem_ctrls.readPktSize::3                     0                       # Read request sizes (log2)
system.mem_ctrls.readPktSize::4                     0                       # Read request sizes (log2)
system.mem_ctrls.readPktSize::5                     0                       # Read request sizes (log2)
system.mem_ctrls.readPktSize::6                 40464                       # Read request sizes (log2)
system.mem_ctrls.writePktSize::0                    0                       # Write request sizes (log2)
system.mem_ctrls.writePktSize::1                    0                       # Write request sizes (log2)
system.mem_ctrls.writePktSize::2                    0                       # Write request sizes (log2)
system.mem_ctrls.writePktSize::3                    0                       # Write request sizes (log2)
system.mem_ctrls.writePktSize::4                    0                       # Write request sizes (log2)
system.mem_ctrls.writePktSize::5                    0                       # Write request sizes (log2)
system.mem_ctrls.writePktSize::6                 6712                       # Write request sizes (log2)
system.mem_ctrls.rdQLenPdf::0                   10072                       # What read queue length does an incoming req see
system.mem_ctrls.rdQLenPdf::1                   10073                       # What read queue length does an incoming req see
system.mem_ctrls.rdQLenPdf::2                   10073                       # What read queue length does an incoming req see
system.mem_ctrls.rdQLenPdf::3                   10074                       # What read queue length does an incoming req see
system.mem_ctrls.rdQLenPdf::4                      42                       # What read queue length does an incoming req see
system.mem_ctrls.rdQLenPdf::5                      41                       # What read queue length does an incoming req see
system.mem_ctrls.rdQLenPdf::6                      41                       # What read queue length does an incoming req see
system.mem_ctrls.rdQLenPdf::7                      41                       # What read queue length does an incoming req see
system.mem_ctrls.rdQLenPdf::8                       2                       # What read queue length does an incoming req see
system.mem_ctrls.rdQLenPdf::9                       2                       # What read queue length does an incoming req see
system.mem_ctrls.rdQLenPdf::10                      2                       # What read queue length does an incoming req see
system.mem_ctrls.rdQLenPdf::11                      1                       # What read queue length does an incoming req see
system.mem_ctrls.rdQLenPdf::12                      0                       # What read queue length does an incoming req see
system.mem_ctrls.rdQLenPdf::13                      0                       # What read queue length does an incoming req see
system.mem_ctrls.rdQLenPdf::14                      0                       # What read queue length does an incoming req see
system.mem_ctrls.rdQLenPdf::15                      0                       # What read queue length does an incoming req see
system.mem_ctrls.rdQLenPdf::16                      0                       # What read queue length does an incoming req see
system.mem_ctrls.rdQLenPdf::17                      0                       # What read queue length does an incoming req see
system.mem_ctrls.rdQLenPdf::18                      0                       # What read queue length does an incoming req see
system.mem_ctrls.rdQLenPdf::19                      0                       # What read queue length does an incoming req see
system.mem_ctrls.rdQLenPdf::20                      0                       # What read queue length does an incoming req see
system.mem_ctrls.rdQLenPdf::21                      0                       # What read queue length does an incoming req see
system.mem_ctrls.rdQLenPdf::22                      0                       # What read queue length does an incoming req see
system.mem_ctrls.rdQLenPdf::23                      0                       # What read queue length does an incoming req see
system.mem_ctrls.rdQLenPdf::24                      0                       # What read queue length does an incoming req see
system.mem_ctrls.rdQLenPdf::25                      0                       # What read queue length does an incoming req see
system.mem_ctrls.rdQLenPdf::26                      0                       # What read queue length does an incoming req see
system.mem_ctrls.rdQLenPdf::27                      0                       # What read queue length does an incoming req see
system.mem_ctrls.rdQLenPdf::28                      0                       # What read queue length does an incoming req see
system.mem_ctrls.rdQLenPdf::29                      0                       # What read queue length does an incoming req see
system.mem_ctrls.rdQLenPdf::30                      0                       # What read queue length does an incoming req see
system.mem_ctrls.rdQLenPdf::31                      0                       # What read queue length does an incoming req see
system.mem_ctrls.wrQLenPdf::0                       1                       # What write queue length does an incoming req see
system.mem_ctrls.wrQLenPdf::1                       1                       # What write queue length does an incoming req see
system.mem_ctrls.wrQLenPdf::2                       1                       # What write queue length does an incoming req see
system.mem_ctrls.wrQLenPdf::3                       1                       # What write queue length does an incoming req see
system.mem_ctrls.wrQLenPdf::4                       1                       # What write queue length does an incoming req see
system.mem_ctrls.wrQLenPdf::5                       1                       # What write queue length does an incoming req see
system.mem_ctrls.wrQLenPdf::6                       1                       # What write queue length does an incoming req see
system.mem_ctrls.wrQLenPdf::7                       1                       # What write queue length does an incoming req see
system.mem_ctrls.wrQLenPdf::8                       1                       # What write queue length does an incoming req see
system.mem_ctrls.wrQLenPdf::9                       1                       # What write queue length does an incoming req see
system.mem_ctrls.wrQLenPdf::10                      1                       # What write queue length does an incoming req see
system.mem_ctrls.wrQLenPdf::11                      1                       # What write queue length does an incoming req see
system.mem_ctrls.wrQLenPdf::12                      1                       # What write queue length does an incoming req see
system.mem_ctrls.wrQLenPdf::13                      1                       # What write queue length does an incoming req see
system.mem_ctrls.wrQLenPdf::14                      1                       # What write queue length does an incoming req see
system.mem_ctrls.wrQLenPdf::15                    335                       # What write queue length does an incoming req see
system.mem_ctrls.wrQLenPdf::16                    335                       # What write queue length does an incoming req see
system.mem_ctrls.wrQLenPdf::17                    335                       # What write queue length does an incoming req see
system.mem_ctrls.wrQLenPdf::18                    335                       # What write queue length does an incoming req see
system.mem_ctrls.wrQLenPdf::19                    334                       # What write queue length does an incoming req see
system.mem_ctrls.wrQLenPdf::20                    334                       # What write queue length does an incoming req see
system.mem_ctrls.wrQLenPdf::21                    334                       # What write queue length does an incoming req see
system.mem_ctrls.wrQLenPdf::22                    334                       # What write queue length does an incoming req see
system.mem_ctrls.wrQLenPdf::23                    334                       # What write queue length does an incoming req see
system.mem_ctrls.wrQLenPdf::24                    334                       # What write queue length does an incoming req see
system.mem_ctrls.wrQLenPdf::25                    334                       # What write queue length does an incoming req see
system.mem_ctrls.wrQLenPdf::26                    335                       # What write queue length does an incoming req see
system.mem_ctrls.wrQLenPdf::27                    335                       # What write queue length does an incoming req see
system.mem_ctrls.wrQLenPdf::28                    336                       # What write queue length does an incoming req see
system.mem_ctrls.wrQLenPdf::29                    336                       # What write queue length does an incoming req see
system.mem_ctrls.wrQLenPdf::30                    336                       # What write queue length does an incoming req see
system.mem_ctrls.wrQLenPdf::31                    336                       # What write queue length does an incoming req see
system.mem_ctrls.wrQLenPdf::32                    335                       # What write queue length does an incoming req see
system.mem_ctrls.wrQLenPdf::33                    335                       # What write queue length does an incoming req see
system.mem_ctrls.wrQLenPdf::34                    334                       # What write queue length does an incoming req see
system.mem_ctrls.wrQLenPdf::35                      1                       # What write queue length does an incoming req see
system.mem_ctrls.wrQLenPdf::36                      0                       # What write queue length does an incoming req see
system.mem_ctrls.wrQLenPdf::37                      0                       # What write queue length does an incoming req see
system.mem_ctrls.wrQLenPdf::38                      0                       # What write queue length does an incoming req see
system.mem_ctrls.wrQLenPdf::39                      0                       # What write queue length does an incoming req see
system.mem_ctrls.wrQLenPdf::40                      0                       # What write queue length does an incoming req see
system.mem_ctrls.wrQLenPdf::41                      0                       # What write queue length does an incoming req see
system.mem_ctrls.wrQLenPdf::42                      0                       # What write queue length does an incoming req see
system.mem_ctrls.wrQLenPdf::43                      0                       # What write queue length does an incoming req see
system.mem_ctrls.wrQLenPdf::44                      0                       # What write queue length does an incoming req see
system.mem_ctrls.wrQLenPdf::45                      0                       # What write queue length does an incoming req see
system.mem_ctrls.wrQLenPdf::46                      0                       # What write queue length does an incoming req see
system.mem_ctrls.wrQLenPdf::47                      0                       # What write queue length does an incoming req see
system.mem_ctrls.wrQLenPdf::48                      0                       # What write queue length does an incoming req see
system.mem_ctrls.wrQLenPdf::49                      0                       # What write queue length does an incoming req see
system.mem_ctrls.wrQLenPdf::50                      0                       # What write queue length does an incoming req see
system.mem_ctrls.wrQLenPdf::51                      0                       # What write queue length does an incoming req see
system.mem_ctrls.wrQLenPdf::52                      0                       # What write queue length does an incoming req see
system.mem_ctrls.wrQLenPdf::53                      0                       # What write queue length does an incoming req see
system.mem_ctrls.wrQLenPdf::54                      0                       # What write queue length does an incoming req see
system.mem_ctrls.wrQLenPdf::55                      0                       # What write queue length does an incoming req see
system.mem_ctrls.wrQLenPdf::56                      0                       # What write queue length does an incoming req see
system.mem_ctrls.wrQLenPdf::57                      0                       # What write queue length does an incoming req see
system.mem_ctrls.wrQLenPdf::58                      0                       # What write queue length does an incoming req see
system.mem_ctrls.wrQLenPdf::59                      0                       # What write queue length does an incoming req see
system.mem_ctrls.wrQLenPdf::60                      0                       # What write queue length does an incoming req see
system.mem_ctrls.wrQLenPdf::61                      0                       # What write queue length does an incoming req see
system.mem_ctrls.wrQLenPdf::62                      0                       # What write queue length does an incoming req see
system.mem_ctrls.wrQLenPdf::63                      0                       # What write queue length does an incoming req see
system.mem_ctrls.bytesPerActivate::samples         8628                       # Bytes accessed per row activation
system.mem_ctrls.bytesPerActivate::mean    349.796940                       # Bytes accessed per row activation
system.mem_ctrls.bytesPerActivate::gmean   316.132720                       # Bytes accessed per row activation
system.mem_ctrls.bytesPerActivate::stdev   189.866155                       # Bytes accessed per row activation
system.mem_ctrls.bytesPerActivate::0-127           31      0.36%      0.36% # Bytes accessed per row activation
system.mem_ctrls.bytesPerActivate::128-255           23      0.27%      0.63% # Bytes accessed per row activation
system.mem_ctrls.bytesPerActivate::256-383         6457     74.84%     75.46% # Bytes accessed per row activation
system.mem_ctrls.bytesPerActivate::384-511           26      0.30%     75.76% # Bytes accessed per row activation
system.mem_ctrls.bytesPerActivate::512-639         1293     14.99%     90.75% # Bytes accessed per row activation
system.mem_ctrls.bytesPerActivate::640-767           15      0.17%     90.92% # Bytes accessed per row activation
system.mem_ctrls.bytesPerActivate::768-895          500      5.80%     96.72% # Bytes accessed per row activation
system.mem_ctrls.bytesPerActivate::896-1023           25      0.29%     97.01% # Bytes accessed per row activation
system.mem_ctrls.bytesPerActivate::1024-1151          258      2.99%    100.00% # Bytes accessed per row activation
system.mem_ctrls.bytesPerActivate::total         8628                       # Bytes accessed per row activation
system.mem_ctrls.rdPerTurnAround::samples          334                       # Reads before turning the bus around for writes
system.mem_ctrls.rdPerTurnAround::mean     121.137725                       # Reads before turning the bus around for writes
system.mem_ctrls.rdPerTurnAround::gmean     22.361008                       # Reads before turning the bus around for writes
system.mem_ctrls.rdPerTurnAround::stdev   1581.048939                       # Reads before turning the bus around for writes
system.mem_ctrls.rdPerTurnAround::0-1023          331     99.10%     99.10% # Reads before turning the bus around for writes
system.mem_ctrls.rdPerTurnAround::1024-2047            2      0.60%     99.70% # Reads before turning the bus around for writes
system.mem_ctrls.rdPerTurnAround::28672-29695            1      0.30%    100.00% # Reads before turning the bus around for writes
system.mem_ctrls.rdPerTurnAround::total           334                       # Reads before turning the bus around for writes
system.mem_ctrls.wrPerTurnAround::samples          334                       # Writes before turning the bus around for reads
system.mem_ctrls.wrPerTurnAround::mean      20.038922                       # Writes before turning the bus around for reads
system.mem_ctrls.wrPerTurnAround::gmean     20.035706                       # Writes before turning the bus around for reads
system.mem_ctrls.wrPerTurnAround::stdev      0.381612                       # Writes before turning the bus around for reads
system.mem_ctrls.wrPerTurnAround::20              330     98.80%     98.80% # Writes before turning the bus around for reads
[...]
system.cpu.icache.ReadReq_mshr_misses::.cpu.inst          709                       # number of ReadReq MSHR misses
system.cpu.icache.ReadReq_mshr_misses::total          709                       # number of ReadReq MSHR misses
system.cpu.icache.ReadReq_mshr_miss_latency::.cpu.inst     28370500                       # number of ReadReq MSHR miss cycles
system.cpu.icache.ReadReq_mshr_miss_latency::total     28370500                       # number of ReadReq MSHR miss cycles
system.cpu.icache.ReadReq_mshr_miss_rate::.cpu.inst     0.000027                       # mshr miss rate for ReadReq accesses
system.cpu.icache.ReadReq_mshr_miss_rate::total     0.000027                       # mshr miss rate for ReadReq accesses
system.cpu.icache.ReadReq_avg_mshr_miss_latency::.cpu.inst 40014.809591                       # average ReadReq mshr miss latency
system.cpu.icache.ReadReq_avg_mshr_miss_latency::total 40014.809591                       # average ReadReq mshr miss latency
system.cpu.icache.tags.pwrStateResidencyTicks::UNDEFINED  55530634000                       # Cumulative time (in ticks) in various power states
system.cpu.icache.tags.tagsinuse           191.941997                       # Cycle average of tags in use
system.cpu.icache.tags.total_refs            26268488                       # Total number of references to valid blocks.
system.cpu.icache.tags.sampled_refs               709                       # Sample count of references to valid blocks.
system.cpu.icache.tags.avg_refs          37050.053597                       # Average number of references to valid blocks.
system.cpu.icache.tags.warmup_cycle            102500                       # Cycle when the warmup percentage was hit.
system.cpu.icache.tags.occ_blocks::.cpu.inst   191.941997                       # Average occupied blocks per requestor
system.cpu.icache.tags.occ_percent::.cpu.inst     0.749773                       # Average percentage of cache occupancy
system.cpu.icache.tags.occ_percent::total     0.749773                       # Average percentage of cache occupancy
system.cpu.icache.tags.occ_task_id_blocks::1024          192                       # Occupied blocks per task id
system.cpu.icache.tags.age_task_id_blocks_1024::2            4                       # Occupied blocks per task id
system.cpu.icache.tags.age_task_id_blocks_1024::4          188                       # Occupied blocks per task id
system.cpu.icache.tags.occ_task_id_percent::1024     0.750000                       # Percentage of cache occupancy per task id
system.cpu.icache.tags.tag_accesses          52537685                       # Number of tag accesses
system.cpu.icache.tags.data_accesses         52537685                       # Number of data accesses
system.cpu.dtb.walker.pwrStateResidencyTicks::UNDEFINED  55530634000                       # Cumulative time (in ticks) in various power states
system.cpu.dtb.stage2_mmu.stage2_tlb.walker.pwrStateResidencyTicks::UNDEFINED  55530634000                       # Cumulative time (in ticks) in various power states
system.cpu.dcache.pwrStateResidencyTicks::UNDEFINED  55530634000                       # Cumulative time (in ticks) in various power states
system.cpu.dcache.demand_hits::.cpu.data     34663315                       # number of demand (read+write) hits
system.cpu.dcache.demand_hits::total         34663315                       # number of demand (read+write) hits
system.cpu.dcache.overall_hits::.cpu.data     34666609                       # number of overall hits
system.cpu.dcache.overall_hits::total        34666609                       # number of overall hits
system.cpu.dcache.demand_misses::.cpu.data        40606                       # number of demand (read+write) misses
system.cpu.dcache.demand_misses::total          40606                       # number of demand (read+write) misses
system.cpu.dcache.overall_misses::.cpu.data        40673                       # number of overall misses
system.cpu.dcache.overall_misses::total         40673                       # number of overall misses
system.cpu.dcache.demand_miss_latency::.cpu.data   1764933500                       # number of demand (read+write) miss cycles
system.cpu.dcache.demand_miss_latency::total   1764933500                       # number of demand (read+write) miss cycles
system.cpu.dcache.overall_miss_latency::.cpu.data   1764933500                       # number of overall miss cycles
system.cpu.dcache.overall_miss_latency::total   1764933500                       # number of overall miss cycles
system.cpu.dcache.demand_accesses::.cpu.data     34703921                       # number of demand (read+write) accesses
system.cpu.dcache.demand_accesses::total     34703921                       # number of demand (read+write) accesses
system.cpu.dcache.overall_accesses::.cpu.data     34707282                       # number of overall (read+write) accesses
system.cpu.dcache.overall_accesses::total     34707282                       # number of overall (read+write) accesses
system.cpu.dcache.demand_miss_rate::.cpu.data     0.001170                       # miss rate for demand accesses
system.cpu.dcache.demand_miss_rate::total     0.001170                       # miss rate for demand accesses
system.cpu.dcache.overall_miss_rate::.cpu.data     0.001172                       # miss rate for overall accesses
system.cpu.dcache.overall_miss_rate::total     0.001172                       # miss rate for overall accesses
system.cpu.dcache.demand_avg_miss_latency::.cpu.data 43464.845097                       # average overall miss latency
system.cpu.dcache.demand_avg_miss_latency::total 43464.845097                       # average overall miss latency
system.cpu.dcache.overall_avg_miss_latency::.cpu.data 43393.246134                       # average overall miss latency
system.cpu.dcache.overall_avg_miss_latency::total 43393.246134                       # average overall miss latency
system.cpu.dcache.blocked_cycles::no_mshrs            0                       # number of cycles access was blocked
system.cpu.dcache.blocked_cycles::no_targets            0                       # number of cycles access was blocked
system.cpu.dcache.blocked::no_mshrs                 0                       # number of cycles access was blocked
system.cpu.dcache.blocked::no_targets               0                       # number of cycles access was blocked
system.cpu.dcache.avg_blocked_cycles::no_mshrs          nan                       # average number of cycles each access was blocked
system.cpu.dcache.avg_blocked_cycles::no_targets          nan                       # average number of cycles each access was blocked
system.cpu.dcache.writebacks::.writebacks        28851                       # number of writebacks
system.cpu.dcache.writebacks::total             28851                       # number of writebacks
system.cpu.dcache.demand_mshr_hits::.cpu.data         6775                       # number of demand (read+write) MSHR hits
system.cpu.dcache.demand_mshr_hits::total         6775                       # number of demand (read+write) MSHR hits
system.cpu.dcache.overall_mshr_hits::.cpu.data         6775                       # number of overall MSHR hits
system.cpu.dcache.overall_mshr_hits::total         6775                       # number of overall MSHR hits
system.cpu.dcache.demand_mshr_misses::.cpu.data        33831                       # number of demand (read+write) MSHR misses
system.cpu.dcache.demand_mshr_misses::total        33831                       # number of demand (read+write) MSHR misses
system.cpu.dcache.overall_mshr_misses::.cpu.data        33865                       # number of overall MSHR misses
system.cpu.dcache.overall_mshr_misses::total        33865                       # number of overall MSHR misses
system.cpu.dcache.demand_mshr_miss_latency::.cpu.data   1311340500                       # number of demand (read+write) MSHR miss cycles
system.cpu.dcache.demand_mshr_miss_latency::total   1311340500                       # number of demand (read+write) MSHR miss cycles
system.cpu.dcache.overall_mshr_miss_latency::.cpu.data   1312160000                       # number of overall MSHR miss cycles
system.cpu.dcache.overall_mshr_miss_latency::total   1312160000                       # number of overall MSHR miss cycles
system.cpu.dcache.demand_mshr_miss_rate::.cpu.data     0.000975                       # mshr miss rate for demand accesses
system.cpu.dcache.demand_mshr_miss_rate::total     0.000975                       # mshr miss rate for demand accesses
system.cpu.dcache.overall_mshr_miss_rate::.cpu.data     0.000976                       # mshr miss rate for overall accesses
system.cpu.dcache.overall_mshr_miss_rate::total     0.000976                       # mshr miss rate for overall accesses
system.cpu.dcache.demand_avg_mshr_miss_latency::.cpu.data 38761.505720                       # average overall mshr miss latency
system.cpu.dcache.demand_avg_mshr_miss_latency::total 38761.505720                       # average overall mshr miss latency
system.cpu.dcache.overall_avg_mshr_miss_latency::.cpu.data 38746.788720                       # average overall mshr miss latency
system.cpu.dcache.overall_avg_mshr_miss_latency::total 38746.788720                       # average overall mshr miss latency
system.cpu.dcache.replacements                  33609                       # number of replacements
system.cpu.dcache.ReadReq_hits::.cpu.data     20469128                       # number of ReadReq hits
system.cpu.dcache.ReadReq_hits::total        20469128                       # number of ReadReq hits
system.cpu.dcache.ReadReq_misses::.cpu.data        24620                       # number of ReadReq misses
system.cpu.dcache.ReadReq_misses::total         24620                       # number of ReadReq misses
system.cpu.dcache.ReadReq_miss_latency::.cpu.data    345446500                       # number of ReadReq miss cycles
system.cpu.dcache.ReadReq_miss_latency::total    345446500                       # number of ReadReq miss cycles
system.cpu.dcache.ReadReq_accesses::.cpu.data     20493748                       # number of ReadReq accesses(hits+misses)
system.cpu.dcache.ReadReq_accesses::total     20493748                       # number of ReadReq accesses(hits+misses)
system.cpu.dcache.ReadReq_miss_rate::.cpu.data     0.001201                       # miss rate for ReadReq accesses
system.cpu.dcache.ReadReq_miss_rate::total     0.001201                       # miss rate for ReadReq accesses
system.cpu.dcache.ReadReq_avg_miss_latency::.cpu.data 14031.133225                       # average ReadReq miss latency
system.cpu.dcache.ReadReq_avg_miss_latency::total 14031.133225                       # average ReadReq miss latency
system.cpu.dcache.ReadReq_mshr_hits::.cpu.data         1581                       # number of ReadReq MSHR hits
system.cpu.dcache.ReadReq_mshr_hits::total         1581                       # number of ReadReq MSHR hits
system.cpu.dcache.ReadReq_mshr_misses::.cpu.data        23039                       # number of ReadReq MSHR misses
system.cpu.dcache.ReadReq_mshr_misses::total        23039                       # number of ReadReq MSHR misses
system.cpu.dcache.ReadReq_mshr_miss_latency::.cpu.data    292821000                       # number of ReadReq MSHR miss cycles
system.cpu.dcache.ReadReq_mshr_miss_latency::total    292821000                       # number of ReadReq MSHR miss cycles
system.cpu.dcache.ReadReq_mshr_miss_rate::.cpu.data     0.001124                       # mshr miss rate for ReadReq accesses
system.cpu.dcache.ReadReq_mshr_miss_rate::total     0.001124                       # mshr miss rate for ReadReq accesses
system.cpu.dcache.ReadReq_avg_mshr_miss_latency::.cpu.data 12709.796432                       # average ReadReq mshr miss latency
system.cpu.dcache.ReadReq_avg_mshr_miss_latency::total 12709.796432                       # average ReadReq mshr miss latency
system.cpu.dcache.WriteReq_hits::.cpu.data     14194187                       # number of WriteReq hits
system.cpu.dcache.WriteReq_hits::total       14194187                       # number of WriteReq hits
system.cpu.dcache.WriteReq_misses::.cpu.data        15986                       # number of WriteReq misses
system.cpu.dcache.WriteReq_misses::total        15986                       # number of WriteReq misses
system.cpu.dcache.WriteReq_miss_latency::.cpu.data   1419487000                       # number of WriteReq miss cycles
system.cpu.dcache.WriteReq_miss_latency::total   1419487000                       # number of WriteReq miss cycles
system.cpu.dcache.WriteReq_accesses::.cpu.data     14210173                       # number of WriteReq accesses(hits+misses)
system.cpu.dcache.WriteReq_accesses::total     14210173                       # number of WriteReq accesses(hits+misses)
system.cpu.dcache.WriteReq_miss_rate::.cpu.data     0.001125                       # miss rate for WriteReq accesses
system.cpu.dcache.WriteReq_miss_rate::total     0.001125                       # miss rate for WriteReq accesses
system.cpu.dcache.WriteReq_avg_miss_latency::.cpu.data 88795.633679                       # average WriteReq miss latency
system.cpu.dcache.WriteReq_avg_miss_latency::total 88795.633679                       # average WriteReq miss latency
system.cpu.dcache.WriteReq_mshr_hits::.cpu.data         5194                       # number of WriteReq MSHR hits
system.cpu.dcache.WriteReq_mshr_hits::total         5194                       # number of WriteReq MSHR hits
system.cpu.dcache.WriteReq_mshr_misses::.cpu.data        10792                       # number of WriteReq MSHR misses
system.cpu.dcache.WriteReq_mshr_misses::total        10792                       # number of WriteReq MSHR misses
system.cpu.dcache.WriteReq_mshr_miss_latency::.cpu.data   1018519500                       # number of WriteReq MSHR miss cycles
system.cpu.dcache.WriteReq_mshr_miss_latency::total   1018519500                       # number of WriteReq MSHR miss cycles
system.cpu.dcache.WriteReq_mshr_miss_rate::.cpu.data     0.000759                       # mshr miss rate for WriteReq accesses
system.cpu.dcache.WriteReq_mshr_miss_rate::total     0.000759                       # mshr miss rate for WriteReq accesses
system.cpu.dcache.WriteReq_avg_mshr_miss_latency::.cpu.data 94377.270200                       # average WriteReq mshr miss latency
system.cpu.dcache.WriteReq_avg_mshr_miss_latency::total 94377.270200                       # average WriteReq mshr miss latency
system.cpu.dcache.SoftPFReq_hits::.cpu.data         3294                       # number of SoftPFReq hits
system.cpu.dcache.SoftPFReq_hits::total          3294                       # number of SoftPFReq hits
system.cpu.dcache.SoftPFReq_misses::.cpu.data           67                       # number of SoftPFReq misses
system.cpu.dcache.SoftPFReq_misses::total           67                       # number of SoftPFReq misses
system.cpu.dcache.SoftPFReq_accesses::.cpu.data         3361                       # number of SoftPFReq accesses(hits+misses)
system.cpu.dcache.SoftPFReq_accesses::total         3361                       # number of SoftPFReq accesses(hits+misses)
system.cpu.dcache.SoftPFReq_miss_rate::.cpu.data     0.019935                       # miss rate for SoftPFReq accesses
system.cpu.dcache.SoftPFReq_miss_rate::total     0.019935                       # miss rate for SoftPFReq accesses
system.cpu.dcache.SoftPFReq_mshr_misses::.cpu.data           34                       # number of SoftPFReq MSHR misses
system.cpu.dcache.SoftPFReq_mshr_misses::total           34                       # number of SoftPFReq MSHR misses
system.cpu.dcache.SoftPFReq_mshr_miss_latency::.cpu.data       819500                       # number of SoftPFReq MSHR miss cycles
system.cpu.dcache.SoftPFReq_mshr_miss_latency::total       819500                       # number of SoftPFReq MSHR miss cycles
system.cpu.dcache.SoftPFReq_mshr_miss_rate::.cpu.data     0.010116                       # mshr miss rate for SoftPFReq accesses
system.cpu.dcache.SoftPFReq_mshr_miss_rate::total     0.010116                       # mshr miss rate for SoftPFReq accesses
system.cpu.dcache.SoftPFReq_avg_mshr_miss_latency::.cpu.data 24102.941176                       # average SoftPFReq mshr miss latency
system.cpu.dcache.SoftPFReq_avg_mshr_miss_latency::total 24102.941176                       # average SoftPFReq mshr miss latency
system.cpu.dcache.LoadLockedReq_hits::.cpu.data        89082                       # number of LoadLockedReq hits
system.cpu.dcache.LoadLockedReq_hits::total        89082                       # number of LoadLockedReq hits
system.cpu.dcache.LoadLockedReq_accesses::.cpu.data        89082                       # number of LoadLockedReq accesses(hits+misses)
system.cpu.dcache.LoadLockedReq_accesses::total        89082                       # number of LoadLockedReq accesses(hits+misses)
system.cpu.dcache.StoreCondReq_hits::.cpu.data        89082                       # number of StoreCondReq hits
system.cpu.dcache.StoreCondReq_hits::total        89082                       # number of StoreCondReq hits
system.cpu.dcache.StoreCondReq_accesses::.cpu.data        89082                       # number of StoreCondReq accesses(hits+misses)
system.cpu.dcache.StoreCondReq_accesses::total        89082                       # number of StoreCondReq accesses(hits+misses)
system.cpu.dcache.tags.pwrStateResidencyTicks::UNDEFINED  55530634000                       # Cumulative time (in ticks) in various power states
system.cpu.dcache.tags.tagsinuse           255.429744                       # Cycle average of tags in use
system.cpu.dcache.tags.total_refs            34878638                       # Total number of references to valid blocks.
system.cpu.dcache.tags.sampled_refs             33865                       # Sample count of references to valid blocks.
system.cpu.dcache.tags.avg_refs           1029.931729                       # Average number of references to valid blocks.
system.cpu.dcache.tags.warmup_cycle            240500                       # Cycle when the warmup percentage was hit.
system.cpu.dcache.tags.occ_blocks::.cpu.data   255.429744                       # Average occupied blocks per requestor
system.cpu.dcache.tags.occ_percent::.cpu.data     0.997772                       # Average percentage of cache occupancy
system.cpu.dcache.tags.occ_percent::total     0.997772                       # Average percentage of cache occupancy
system.cpu.dcache.tags.occ_task_id_blocks::1024          256                       # Occupied blocks per task id
system.cpu.dcache.tags.age_task_id_blocks_1024::0            4                       # Occupied blocks per task id
system.cpu.dcache.tags.age_task_id_blocks_1024::1           38                       # Occupied blocks per task id
system.cpu.dcache.tags.age_task_id_blocks_1024::2          181                       # Occupied blocks per task id
system.cpu.dcache.tags.age_task_id_blocks_1024::3           27                       # Occupied blocks per task id
system.cpu.dcache.tags.age_task_id_blocks_1024::4            6                       # Occupied blocks per task id
system.cpu.dcache.tags.occ_task_id_percent::1024            1                       # Percentage of cache occupancy per task id
system.cpu.dcache.tags.tag_accesses          69804757                       # Number of tag accesses
system.cpu.dcache.tags.data_accesses         69804757                       # Number of data accesses
system.cpu.itb.walker.pwrStateResidencyTicks::UNDEFINED  55530634000                       # Cumulative time (in ticks) in various power states
system.cpu.itb.stage2_mmu.stage2_tlb.walker.pwrStateResidencyTicks::UNDEFINED  55530634000                       # Cumulative time (in ticks) in various power states

---------- End Simulation Statistics   ----------
