
---------- Begin Simulation Statistics ----------
final_tick                               174652525000                       # Number of ticks from beginning of simulation (restored from checkpoints and never reset)
host_inst_rate                                 134667                       # Simulator instruction rate (inst/s)
host_mem_usage                                 695716                       # Number of bytes of host memory used
host_op_rate                                   134676                       # Simulator op (including micro ops) rate (op/s)
host_seconds                                   742.57                       # Real time elapsed on the host
host_tick_rate                              235198628                       # Simulator tick rate (ticks/s)
sim_freq                                 1000000000000                       # Frequency of simulated ticks
sim_insts                                   100000000                       # Number of instructions simulated
sim_ops                                     100007235                       # Number of ops (including micro ops) simulated
sim_seconds                                  0.174653                       # Number of seconds simulated
sim_ticks                                174652525000                       # Number of ticks simulated
system.cpu.branchPred.BTBCorrect                    0                       # Number of correct BTB predictions (this stat may not work properly.
system.cpu.branchPred.BTBHitPct             99.447880                       # BTB Hit Percentage
system.cpu.branchPred.BTBHits                  597638                       # Number of BTB hits
system.cpu.branchPred.BTBLookups               600956                       # Number of BTB lookups
system.cpu.branchPred.RASInCorrect                  7                       # Number of incorrect RAS predictions.
system.cpu.branchPred.condIncorrect              1134                       # Number of conditional branches incorrect
system.cpu.branchPred.condPredicted            601372                       # Number of conditional branches predicted
system.cpu.branchPred.indirectHits                414                       # Number of indirect target hits.
system.cpu.branchPred.indirectLookups             626                       # Number of indirect predictor lookups.
system.cpu.branchPred.indirectMisses              212                       # Number of indirect misses.
system.cpu.branchPred.lookups                  604779                       # Number of BP lookups
system.cpu.branchPred.usedRAS                    1375                       # Number of times the RAS was used to get a target.
system.cpu.branchPredindirectMispredicted          368                       # Number of mispredicted indirect branches.
system.cpu.committedInsts                   100000000                       # Number of instructions committed
system.cpu.committedOps                     100007235                       # Number of ops (including micro ops) committed
system.cpu.cpi                               3.493050                       # CPI: cycles per instruction
system.cpu.discardedOps                          3445                       # Number of ops (including micro ops) which were discarded before commit
system.cpu.dtb.accesses                             0                       # DTB accesses
system.cpu.dtb.align_faults                         0                       # Number of TLB faults due to alignment restrictions
system.cpu.dtb.domain_faults                        0                       # Number of TLB faults due to domain restrictions
system.cpu.dtb.flush_entries                        0                       # Number of entries that have been flushed from TLB
system.cpu.dtb.flush_tlb                            0                       # Number of times complete TLB was flushed
system.cpu.dtb.flush_tlb_asid                       0                       # Number of times TLB was flushed by ASID
system.cpu.dtb.flush_tlb_mva                        0                       # Number of times TLB was flushed by MVA
system.cpu.dtb.flush_tlb_mva_asid                   0                       # Number of times TLB was flushed by MVA & ASID
system.cpu.dtb.hits                                 0                       # DTB hits
system.cpu.dtb.inst_accesses                        0                       # ITB inst accesses
system.cpu.dtb.inst_hits                            0                       # ITB inst hits
system.cpu.dtb.inst_misses                          0                       # ITB inst misses
system.cpu.dtb.misses                               0                       # DTB misses
system.cpu.dtb.perms_faults                         0                       # Number of TLB faults due to permissions restrictions
system.cpu.dtb.prefetch_faults                      0                       # Number of TLB faults due to prefetch
system.cpu.dtb.read_accesses                        0                       # DTB read accesses
system.cpu.dtb.read_hits                            0                       # DTB read hits
system.cpu.dtb.read_misses                          0                       # DTB read misses
system.cpu.dtb.stage2_mmu.stage2_tlb.accesses            0                       # DTB accesses
system.cpu.dtb.stage2_mmu.stage2_tlb.align_faults            0                       # Number of TLB faults due to alignment restrictions
system.cpu.dtb.stage2_mmu.stage2_tlb.domain_faults            0                       # Number of TLB faults due to domain restrictions
system.cpu.dtb.stage2_mmu.stage2_tlb.flush_entries            0                       # Number of entries that have been flushed from TLB
system.cpu.dtb.stage2_mmu.stage2_tlb.flush_tlb            0                       # Number of times complete TLB was flushed
system.cpu.dtb.stage2_mmu.stage2_tlb.flush_tlb_asid            0                       # Number of times TLB was flushed by ASID
system.cpu.dtb.stage2_mmu.stage2_tlb.flush_tlb_mva            0                       # Number of times TLB was flushed by MVA
system.cpu.dtb.stage2_mmu.stage2_tlb.flush_tlb_mva_asid            0                       # Number of times TLB was flushed by MVA & ASID
system.cpu.dtb.stage2_mmu.stage2_tlb.hits            0                       # DTB hits
system.cpu.dtb.stage2_mmu.stage2_tlb.inst_accesses            0                       # ITB inst accesses
system.cpu.dtb.stage2_mmu.stage2_tlb.inst_hits            0                       # ITB inst hits
system.cpu.dtb.stage2_mmu.stage2_tlb.inst_misses            0                       # ITB inst misses
system.cpu.dtb.stage2_mmu.stage2_tlb.misses            0                       # DTB misses
system.cpu.dtb.stage2_mmu.stage2_tlb.perms_faults            0                       # Number of TLB faults due to permissions restrictions
system.cpu.dtb.stage2_mmu.stage2_tlb.prefetch_faults            0                       # Number of TLB faults due to prefetch
system.cpu.dtb.stage2_mmu.stage2_tlb.read_accesses            0                       # DTB read accesses
system.cpu.dtb.stage2_mmu.stage2_tlb.read_hits            0                       # DTB read hits
system.cpu.dtb.stage2_mmu.stage2_tlb.read_misses            0                       # DTB read misses
system.cpu.dtb.stage2_mmu.stage2_tlb.walker.walkRequestOrigin_Requested::Data            0                       # Table walker requests started/completed, data/inst
system.cpu.dtb.stage2_mmu.stage2_tlb.walker.walkRequestOrigin_Requested::Inst            0                       # Table walker requests started/completed, data/inst
system.cpu.dtb.stage2_mmu.stage2_tlb.walker.walkRequestOrigin_Requested::total            0                       # Table walker requests started/completed, data/inst
system.cpu.dtb.stage2_mmu.stage2_tlb.walker.walkRequestOrigin_Completed::Data            0                       # Table walker requests started/completed, data/inst
system.cpu.dtb.stage2_mmu.stage2_tlb.walker.walkRequestOrigin_Completed::Inst            0                       # Table walker requests started/completed, data/inst
system.cpu.dtb.stage2_mmu.stage2_tlb.walker.walkRequestOrigin_Completed::total            0                       # Table walker requests started/completed, data/inst
system.cpu.dtb.stage2_mmu.stage2_tlb.walker.walkRequestOrigin::total            0                       # Table walker requests started/completed, data/inst
system.cpu.dtb.stage2_mmu.stage2_tlb.walker.walks            0                       # Table walker walks requested
system.cpu.dtb.stage2_mmu.stage2_tlb.write_accesses            0                       # DTB write accesses
system.cpu.dtb.stage2_mmu.stage2_tlb.write_hits            0                       # DTB write hits
system.cpu.dtb.stage2_mmu.stage2_tlb.write_misses            0                       # DTB write misses
system.cpu.dtb.walker.walkRequestOrigin_Requested::Data            0                       # Table walker requests started/completed, data/inst
system.cpu.dtb.walker.walkRequestOrigin_Requested::Inst            0                       # Table walker requests started/completed, data/inst
system.cpu.dtb.walker.walkRequestOrigin_Requested::total            0                       # Table walker requests started/completed, data/inst
system.cpu.dtb.walker.walkRequestOrigin_Completed::Data            0                       # Table walker requests started/completed, data/inst
system.cpu.dtb.walker.walkRequestOrigin_Completed::Inst            0                       # Table walker requests started/completed, data/inst
system.cpu.dtb.walker.walkRequestOrigin_Completed::total            0                       # Table walker requests started/completed, data/inst
system.cpu.dtb.walker.walkRequestOrigin::total            0                       # Table walker requests started/completed, data/inst
system.cpu.dtb.walker.walks                         0                       # Table walker walks requested
system.cpu.dtb.write_accesses                       0                       # DTB write accesses
system.cpu.dtb.write_hits                           0                       # DTB write hits
system.cpu.dtb.write_misses                         0                       # DTB write misses
system.cpu.fetch2.amo_instructions                  0                       # Number of memory atomic instructions successfully decoded
system.cpu.fetch2.fp_instructions                   0                       # Number of floating point instructions successfully decoded
system.cpu.fetch2.int_instructions           49412574                       # Number of integer instructions successfully decoded
system.cpu.fetch2.load_instructions          36899044                       # Number of memory load instructions successfully decoded
system.cpu.fetch2.store_instructions         13093499                       # Number of memory store instructions successfully decoded
system.cpu.fetch2.vec_instructions                  0                       # Number of SIMD instructions successfully decoded
system.cpu.idleCycles                       232027674                       # Total number of cycles that the object has spent stopped
system.cpu.ipc                               0.286283                       # IPC: instructions per cycle
system.cpu.itb.accesses                             0                       # DTB accesses
system.cpu.itb.align_faults                         0                       # Number of TLB faults due to alignment restrictions
system.cpu.itb.domain_faults                        0                       # Number of TLB faults due to domain restrictions
system.cpu.itb.flush_entries                        0                       # Number of entries that have been flushed from TLB
system.cpu.itb.flush_tlb                            0                       # Number of times complete TLB was flushed
system.cpu.itb.flush_tlb_asid                       0                       # Number of times TLB was flushed by ASID
system.cpu.itb.flush_tlb_mva                        0                       # Number of times TLB was flushed by MVA
system.cpu.itb.flush_tlb_mva_asid                   0                       # Number of times TLB was flushed by MVA & ASID
system.cpu.itb.hits                                 0                       # DTB hits
system.cpu.itb.inst_accesses                        0                       # ITB inst accesses
system.cpu.itb.inst_hits                            0                       # ITB inst hits
system.cpu.itb.inst_misses                          0                       # ITB inst misses
system.cpu.itb.misses                               0                       # DTB misses
system.cpu.itb.perms_faults                         0                       # Number of TLB faults due to permissions restrictions
system.cpu.itb.prefetch_faults                      0                       # Number of TLB faults due to prefetch
system.cpu.itb.read_accesses                        0                       # DTB read accesses
system.cpu.itb.read_hits                            0                       # DTB read hits
system.cpu.itb.read_misses                          0                       # DTB read misses
system.cpu.itb.stage2_mmu.stage2_tlb.accesses            0                       # DTB accesses
system.cpu.itb.stage2_mmu.stage2_tlb.align_faults            0                       # Number of TLB faults due to alignment restrictions
system.cpu.itb.stage2_mmu.stage2_tlb.domain_faults            0                       # Number of TLB faults due to domain restrictions
system.cpu.itb.stage2_mmu.stage2_tlb.flush_entries            0                       # Number of entries that have been flushed from TLB
system.cpu.itb.stage2_mmu.stage2_tlb.flush_tlb            0                       # Number of times complete TLB was flushed
system.cpu.itb.stage2_mmu.stage2_tlb.flush_tlb_asid            0                       # Number of times TLB was flushed by ASID
system.cpu.itb.stage2_mmu.stage2_tlb.flush_tlb_mva            0                       # Number of times TLB was flushed by MVA
system.cpu.itb.stage2_mmu.stage2_tlb.flush_tlb_mva_asid            0                       # Number of times TLB was flushed by MVA & ASID
system.cpu.itb.stage2_mmu.stage2_tlb.hits            0                       # DTB hits
system.cpu.itb.stage2_mmu.stage2_tlb.inst_accesses            0                       # ITB inst accesses
system.cpu.itb.stage2_mmu.stage2_tlb.inst_hits            0                       # ITB inst hits
system.cpu.itb.stage2_mmu.stage2_tlb.inst_misses            0                       # ITB inst misses
system.cpu.itb.stage2_mmu.stage2_tlb.misses            0                       # DTB misses
system.cpu.itb.stage2_mmu.stage2_tlb.perms_faults            0                       # Number of TLB faults due to permissions restrictions
system.cpu.itb.stage2_mmu.stage2_tlb.prefetch_faults            0                       # Number of TLB faults due to prefetch
system.cpu.itb.stage2_mmu.stage2_tlb.read_accesses            0                       # DTB read accesses
system.cpu.itb.stage2_mmu.stage2_tlb.read_hits            0                       # DTB read hits
system.cpu.itb.stage2_mmu.stage2_tlb.read_misses            0                       # DTB read misses
system.cpu.itb.stage2_mmu.stage2_tlb.walker.walkRequestOrigin_Requested::Data            0                       # Table walker requests started/completed, data/inst
system.cpu.itb.stage2_mmu.stage2_tlb.walker.walkRequestOrigin_Requested::Inst            0                       # Table walker requests started/completed, data/inst
system.cpu.itb.stage2_mmu.stage2_tlb.walker.walkRequestOrigin_Requested::total            0                       # Table walker requests started/completed, data/inst
system.cpu.itb.stage2_mmu.stage2_tlb.walker.walkRequestOrigin_Completed::Data            0                       # Table walker requests started/completed, data/inst
system.cpu.itb.stage2_mmu.stage2_tlb.walker.walkRequestOrigin_Completed::Inst            0                       # Table walker requests started/completed, data/inst
system.cpu.itb.stage2_mmu.stage2_tlb.walker.walkRequestOrigin_Completed::total            0                       # Table walker requests started/completed, data/inst
system.cpu.itb.stage2_mmu.stage2_tlb.walker.walkRequestOrigin::total            0                       # Table walker requests started/completed, data/inst
system.cpu.itb.stage2_mmu.stage2_tlb.walker.walks            0                       # Table walker walks requested
system.cpu.itb.stage2_mmu.stage2_tlb.write_accesses            0                       # DTB write accesses
system.cpu.itb.stage2_mmu.stage2_tlb.write_hits            0                       # DTB write hits
system.cpu.itb.stage2_mmu.stage2_tlb.write_misses            0                       # DTB write misses
system.cpu.itb.walker.walkRequestOrigin_Requested::Data            0                       # Table walker requests started/completed, data/inst
system.cpu.itb.walker.walkRequestOrigin_Requested::Inst            0                       # Table walker requests started/completed, data/inst
system.cpu.itb.walker.walkRequestOrigin_Requested::total            0                       # Table walker requests started/completed, data/inst
system.cpu.itb.walker.walkRequestOrigin_Completed::Data            0                       # Table walker requests started/completed, data/inst
system.cpu.itb.walker.walkRequestOrigin_Completed::Inst            0                       # Table walker requests started/completed, data/inst
system.cpu.itb.walker.walkRequestOrigin_Completed::total            0                       # Table walker requests started/completed, data/inst
system.cpu.itb.walker.walkRequestOrigin::total            0                       # Table walker requests started/completed, data/inst
system.cpu.itb.walker.walks                         0                       # Table walker walks requested
system.cpu.itb.write_accesses                       0                       # DTB write accesses
system.cpu.itb.write_hits                           0                       # DTB write hits
system.cpu.itb.write_misses                         0                       # DTB write misses
system.cpu.numCycles                        349305050                       # number of cpu cycles simulated
system.cpu.numFetchSuspends                         0                       # Number of times Execute suspended instruction fetching
system.cpu.numWorkItemsCompleted                    0                       # number of work items this cpu completed
system.cpu.numWorkItemsStarted                      0                       # number of work items this cpu started
system.cpu.op_class_0::No_OpClass                   0      0.00%      0.00% # Class of committed instruction
system.cpu.op_class_0::IntAlu                50010428     50.01%     50.01% # Class of committed instruction
system.cpu.op_class_0::IntMult                     85      0.00%     50.01% # Class of committed instruction
system.cpu.op_class_0::IntDiv                       0      0.00%     50.01% # Class of committed instruction
system.cpu.op_class_0::FloatAdd                     0      0.00%     50.01% # Class of committed instruction
system.cpu.op_class_0::FloatCmp                     0      0.00%     50.01% # Class of committed instruction
system.cpu.op_class_0::FloatCvt                     0      0.00%     50.01% # Class of committed instruction
system.cpu.op_class_0::FloatMult                    0      0.00%     50.01% # Class of committed instruction
system.cpu.op_class_0::FloatMultAcc                 0      0.00%     50.01% # Class of committed instruction
system.cpu.op_class_0::FloatDiv                     0      0.00%     50.01% # Class of committed instruction
system.cpu.op_class_0::FloatMisc                    0      0.00%     50.01% # Class of committed instruction
system.cpu.op_class_0::FloatSqrt                    0      0.00%     50.01% # Class of committed instruction
system.cpu.op_class_0::SimdAdd                      0      0.00%     50.01% # Class of committed instruction
system.cpu.op_class_0::SimdAddAcc                   0      0.00%     50.01% # Class of committed instruction
system.cpu.op_class_0::SimdAlu                      0      0.00%     50.01% # Class of committed instruction
system.cpu.op_class_0::SimdCmp                      0      0.00%     50.01% # Class of committed instruction
system.cpu.op_class_0::SimdCvt                      0      0.00%     50.01% # Class of committed instruction
system.cpu.op_class_0::SimdMisc                     0      0.00%     50.01% # Class of committed instruction
system.cpu.op_class_0::SimdMult                     0      0.00%     50.01% # Class of committed instruction
system.cpu.op_class_0::SimdMultAcc                  0      0.00%     50.01% # Class of committed instruction
system.cpu.op_class_0::SimdShift                    0      0.00%     50.01% # Class of committed instruction
system.cpu.op_class_0::SimdShiftAcc                 0      0.00%     50.01% # Class of committed instruction
system.cpu.op_class_0::SimdDiv                      0      0.00%     50.01% # Class of committed instruction
system.cpu.op_class_0::SimdSqrt                     0      0.00%     50.01% # Class of committed instruction
system.cpu.op_class_0::SimdFloatAdd                 0      0.00%     50.01% # Class of committed instruction
system.cpu.op_class_0::SimdFloatAlu                 0      0.00%     50.01% # Class of committed instruction
system.cpu.op_class_0::SimdFloatCmp                 2      0.00%     50.01% # Class of committed instruction
system.cpu.op_class_0::SimdFloatCvt                 0      0.00%     50.01% # Class of committed instruction
system.cpu.op_class_0::SimdFloatDiv                 0      0.00%     50.01% # Class of committed instruction
system.cpu.op_class_0::SimdFloatMisc               22      0.00%     50.01% # Class of committed instruction
system.cpu.op_class_0::SimdFloatMult                0      0.00%     50.01% # Class of committed instruction
system.cpu.op_class_0::SimdFloatMultAcc             0      0.00%     50.01% # Class of committed instruction
system.cpu.op_class_0::SimdFloatSqrt                0      0.00%     50.01% # Class of committed instruction
system.cpu.op_class_0::SimdReduceAdd                0      0.00%     50.01% # Class of committed instruction
system.cpu.op_class_0::SimdReduceAlu                0      0.00%     50.01% # Class of committed instruction
system.cpu.op_class_0::SimdReduceCmp                0      0.00%     50.01% # Class of committed instruction
system.cpu.op_class_0::SimdFloatReduceAdd            0      0.00%     50.01% # Class of committed instruction
system.cpu.op_class_0::SimdFloatReduceCmp            0      0.00%     50.01% # Class of committed instruction
system.cpu.op_class_0::SimdAes                      0      0.00%     50.01% # Class of committed instruction
system.cpu.op_class_0::SimdAesMix                   0      0.00%     50.01% # Class of committed instruction
system.cpu.op_class_0::SimdSha1Hash                 0      0.00%     50.01% # Class of committed instruction
system.cpu.op_class_0::SimdSha1Hash2                0      0.00%     50.01% # Class of committed instruction
system.cpu.op_class_0::SimdSha256Hash               0      0.00%     50.01% # Class of committed instruction
system.cpu.op_class_0::SimdSha256Hash2              0      0.00%     50.01% # Class of committed instruction
system.cpu.op_class_0::SimdShaSigma2                0      0.00%     50.01% # Class of committed instruction
system.cpu.op_class_0::SimdShaSigma3                0      0.00%     50.01% # Class of committed instruction
system.cpu.op_class_0::SimdPredAlu                  0      0.00%     50.01% # Class of committed instruction
system.cpu.op_class_0::MemRead               36899927     36.90%     86.90% # Class of committed instruction
system.cpu.op_class_0::MemWrite              13096771     13.10%    100.00% # Class of committed instruction
system.cpu.op_class_0::FloatMemRead                 0      0.00%    100.00% # Class of committed instruction
system.cpu.op_class_0::FloatMemWrite                0      0.00%    100.00% # Class of committed instruction
system.cpu.op_class_0::IprAccess                    0      0.00%    100.00% # Class of committed instruction
system.cpu.op_class_0::InstPrefetch                 0      0.00%    100.00% # Class of committed instruction
system.cpu.op_class_0::total                100007235                       # Class of committed instruction
system.cpu.tickCycles                       117277376                       # Number of cycles that the object actually ticked
system.cpu.workload.numSyscalls                   275                       # Number of system calls
system.membus.snoop_filter.hit_multi_requests            0                       # Number of requests hitting in the snoop filter with multiple (>1) holders of the requested data.
system.membus.snoop_filter.hit_multi_snoops            0                       # Number of snoops hitting in the snoop filter with multiple (>1) holders of the requested data.
system.membus.snoop_filter.hit_single_requests      1455331                       # Number of requests hitting in the snoop filter with a single holder of the requested data.
system.membus.snoop_filter.hit_single_snoops            0                       # Number of snoops hitting in the snoop filter with a single holder of the requested data.
system.membus.snoop_filter.tot_requests       2943671                       # Total number of requests made to the snoop filter.
system.membus.snoop_filter.tot_snoops               0                       # Total number of snoops made to the snoop filter.
system.tol2bus.snoop_filter.hit_multi_requests           36                       # Number of requests hitting in the snoop filter with multiple (>1) holders of the requested data.
system.tol2bus.snoop_filter.hit_multi_snoops            1                       # Number of snoops hitting in the snoop filter with multiple (>1) holders of the requested data.
system.tol2bus.snoop_filter.hit_single_requests      1487279                       # Number of requests hitting in the snoop filter with a single holder of the requested data.
system.tol2bus.snoop_filter.hit_single_snoops          240                       # Number of snoops hitting in the snoop filter with a single holder of the requested data.
system.tol2bus.snoop_filter.tot_requests      2975821                       # Total number of requests made to the snoop filter.
system.tol2bus.snoop_filter.tot_snoops            241                       # Total number of snoops made to the snoop filter.
system.membus.pwrStateResidencyTicks::UNDEFINED 174652525000                       # Cumulative time (in ticks) in various power states
system.membus.trans_dist::ReadResp                600                       # Transaction distribution
system.membus.trans_dist::WritebackDirty      1454989                       # Transaction distribution
system.membus.trans_dist::CleanEvict              342                       # Transaction distribution
system.membus.trans_dist::ReadExReq           1487740                       # Transaction distribution
system.membus.trans_dist::ReadExResp          1487740                       # Transaction distribution
system.membus.trans_dist::ReadSharedReq           600                       # Transaction distribution
system.membus.pkt_count_system.l2.mem_side::system.mem_ctrls.port      4432011                       # Packet count per connected master and slave (bytes)
system.membus.pkt_count::total                4432011                       # Packet count per connected master and slave (bytes)
system.membus.pkt_size_system.l2.mem_side::system.mem_ctrls.port    188373056                       # Cumulative packet size per connected master and slave (bytes)
system.membus.pkt_size::total               188373056                       # Cumulative packet size per connected master and slave (bytes)
system.membus.snoops                                0                       # Total snoops (count)
system.membus.snoopTraffic                          0                       # Total snoop traffic (bytes)
system.membus.snoop_fanout::samples           1488340                       # Request fanout histogram
system.membus.snoop_fanout::mean                    0                       # Request fanout histogram
system.membus.snoop_fanout::stdev                   0                       # Request fanout histogram
system.membus.snoop_fanout::underflows              0      0.00%      0.00% # Request fanout histogram
system.membus.snoop_fanout::0                 1488340    100.00%    100.00% # Request fanout histogram
system.membus.snoop_fanout::1                       0      0.00%    100.00% # Request fanout histogram
system.membus.snoop_fanout::overflows               0      0.00%    100.00% # Request fanout histogram
system.membus.snoop_fanout::min_value               0                       # Request fanout histogram
system.membus.snoop_fanout::max_value               0                       # Request fanout histogram
system.membus.snoop_fanout::total             1488340                       # Request fanout histogram
system.membus.respLayer1.occupancy         7842765250                       # Layer occupancy (ticks)
system.membus.respLayer1.utilization              4.5                       # Layer utilization (%)
system.membus.reqLayer0.occupancy          9358792000                       # Layer occupancy (ticks)
system.membus.reqLayer0.utilization               5.4                       # Layer utilization (%)
system.tol2bus.pwrStateResidencyTicks::UNDEFINED 174652525000                       # Cumulative time (in ticks) in various power states
system.tol2bus.trans_dist::ReadResp               802                       # Transaction distribution
system.tol2bus.trans_dist::WritebackDirty      2941724                       # Transaction distribution
system.tol2bus.trans_dist::WritebackClean          434                       # Transaction distribution
system.tol2bus.trans_dist::CleanEvict             692                       # Transaction distribution
system.tol2bus.trans_dist::ReadExReq          1487741                       # Transaction distribution
system.tol2bus.trans_dist::ReadExResp         1487740                       # Transaction distribution
system.tol2bus.trans_dist::ReadCleanReq           674                       # Transaction distribution
system.tol2bus.trans_dist::ReadSharedReq          128                       # Transaction distribution
system.tol2bus.pkt_count_system.cpu.icache.mem_side::system.l2.cpu_side         1782                       # Packet count per connected master and slave (bytes)
system.tol2bus.pkt_count_system.cpu.dcache.mem_side::system.l2.cpu_side      4462581                       # Packet count per connected master and slave (bytes)
system.tol2bus.pkt_count::total               4464363                       # Packet count per connected master and slave (bytes)
system.tol2bus.pkt_size_system.cpu.icache.mem_side::system.l2.cpu_side        70912                       # Cumulative packet size per connected master and slave (bytes)
system.tol2bus.pkt_size_system.cpu.dcache.mem_side::system.l2.cpu_side    190374592                       # Cumulative packet size per connected master and slave (bytes)
system.tol2bus.pkt_size::total              190445504                       # Cumulative packet size per connected master and slave (bytes)
system.tol2bus.snoops                         1455572                       # Total snoops (count)
system.tol2bus.snoopTraffic                  93119296                       # Total snoop traffic (bytes)
system.tol2bus.snoop_fanout::samples          2944115                       # Request fanout histogram
system.tol2bus.snoop_fanout::mean            0.000095                       # Request fanout histogram
system.tol2bus.snoop_fanout::stdev           0.009769                       # Request fanout histogram
system.tol2bus.snoop_fanout::underflows             0      0.00%      0.00% # Request fanout histogram
system.tol2bus.snoop_fanout::0                2943837     99.99%     99.99% # Request fanout histogram
system.tol2bus.snoop_fanout::1                    277      0.01%    100.00% # Request fanout histogram
system.tol2bus.snoop_fanout::2                      1      0.00%    100.00% # Request fanout histogram
system.tol2bus.snoop_fanout::overflows              0      0.00%    100.00% # Request fanout histogram
system.tol2bus.snoop_fanout::min_value              0                       # Request fanout histogram
system.tol2bus.snoop_fanout::max_value              2                       # Request fanout histogram
system.tol2bus.snoop_fanout::total            2944115                       # Request fanout histogram
system.tol2bus.reqLayer0.occupancy         2975079500                       # Layer occupancy (ticks)
system.tol2bus.reqLayer0.utilization              1.7                       # Layer utilization (%)
system.tol2bus.respLayer1.occupancy        2231803497                       # Layer occupancy (ticks)
system.tol2bus.respLayer1.utilization             1.3                       # Layer utilization (%)
system.tol2bus.respLayer0.occupancy           1011000                       # Layer occupancy (ticks)
system.tol2bus.respLayer0.utilization             0.0                       # Layer utilization (%)
system.voltage_domain.voltage                       1                       # Voltage in Volts
system.clk_domain.clock                          1000                       # Clock period in ticks
system.l2.pwrStateResidencyTicks::UNDEFINED 174652525000                       # Cumulative time (in ticks) in various power states
system.l2.demand_hits::.cpu.inst                  184                       # number of demand (read+write) hits
system.l2.demand_hits::.cpu.data                   15                       # number of demand (read+write) hits
system.l2.demand_hits::total                      199                       # number of demand (read+write) hits
system.l2.overall_hits::.cpu.inst                 184                       # number of overall hits
system.l2.overall_hits::.cpu.data                  15                       # number of overall hits
system.l2.overall_hits::total                     199                       # number of overall hits
system.l2.demand_misses::.cpu.inst                490                       # number of demand (read+write) misses
system.l2.demand_misses::.cpu.data            1487854                       # number of demand (read+write) misses
system.l2.demand_misses::total                1488344                       # number of demand (read+write) misses
system.l2.overall_misses::.cpu.inst               490                       # number of overall misses
system.l2.overall_misses::.cpu.data           1487854                       # number of overall misses
system.l2.overall_misses::total               1488344                       # number of overall misses
system.l2.demand_miss_latency::.cpu.inst     36912500                       # number of demand (read+write) miss cycles
system.l2.demand_miss_latency::.cpu.data 118812688500                       # number of demand (read+write) miss cycles
system.l2.demand_miss_latency::total     118849601000                       # number of demand (read+write) miss cycles
system.l2.overall_miss_latency::.cpu.inst     36912500                       # number of overall miss cycles
system.l2.overall_miss_latency::.cpu.data 118812688500                       # number of overall miss cycles
system.l2.overall_miss_latency::total    118849601000                       # number of overall miss cycles
system.l2.demand_accesses::.cpu.inst              674                       # number of demand (read+write) accesses
system.l2.demand_accesses::.cpu.data          1487869                       # number of demand (read+write) accesses
system.l2.demand_accesses::total              1488543                       # number of demand (read+write) accesses
system.l2.overall_accesses::.cpu.inst             674                       # number of overall (read+write) accesses
system.l2.overall_accesses::.cpu.data         1487869                       # number of overall (read+write) accesses
system.l2.overall_accesses::total             1488543                       # number of overall (read+write) accesses
system.l2.demand_miss_rate::.cpu.inst        0.727003                       # miss rate for demand accesses
system.l2.demand_miss_rate::.cpu.data        0.999990                       # miss rate for demand accesses
system.l2.demand_miss_rate::total            0.999866                       # miss rate for demand accesses
system.l2.overall_miss_rate::.cpu.inst       0.727003                       # miss rate for overall accesses
system.l2.overall_miss_rate::.cpu.data       0.999990                       # miss rate for overall accesses
system.l2.overall_miss_rate::total           0.999866                       # miss rate for overall accesses
system.l2.demand_avg_miss_latency::.cpu.inst 75331.632653                       # average overall miss latency
system.l2.demand_avg_miss_latency::.cpu.data 79855.072137                       # average overall miss latency
system.l2.demand_avg_miss_latency::total 79853.582908                       # average overall miss latency
system.l2.overall_avg_miss_latency::.cpu.inst 75331.632653                       # average overall miss latency
system.l2.overall_avg_miss_latency::.cpu.data 79855.072137                       # average overall miss latency
system.l2.overall_avg_miss_latency::total 79853.582908                       # average overall miss latency
system.l2.blocked_cycles::no_mshrs                  0                       # number of cycles access was blocked
system.l2.blocked_cycles::no_targets                0                       # number of cycles access was blocked
system.l2.blocked::no_mshrs                         0                       # number of cycles access was blocked
system.l2.blocked::no_targets                       0                       # number of cycles access was blocked
system.l2.avg_blocked_cycles::no_mshrs            nan                       # average number of cycles each access was blocked
system.l2.avg_blocked_cycles::no_targets          nan                       # average number of cycles each access was blocked
system.l2.writebacks::.writebacks             1454989                       # number of writebacks
system.l2.writebacks::total                   1454989                       # number of writebacks
system.l2.demand_mshr_hits::.cpu.data               3                       # number of demand (read+write) MSHR hits
system.l2.demand_mshr_hits::total                   3                       # number of demand (read+write) MSHR hits
system.l2.overall_mshr_hits::.cpu.data              3                       # number of overall MSHR hits
system.l2.overall_mshr_hits::total                  3                       # number of overall MSHR hits
system.l2.demand_mshr_misses::.cpu.inst           490                       # number of demand (read+write) MSHR misses
system.l2.demand_mshr_misses::.cpu.data       1487851                       # number of demand (read+write) MSHR misses
system.l2.demand_mshr_misses::total           1488341                       # number of demand (read+write) MSHR misses
system.l2.overall_mshr_misses::.cpu.inst          490                       # number of overall MSHR misses
system.l2.overall_mshr_misses::.cpu.data      1487851                       # number of overall MSHR misses
system.l2.overall_mshr_misses::total          1488341                       # number of overall MSHR misses
system.l2.demand_mshr_miss_latency::.cpu.inst     32012500                       # number of demand (read+write) MSHR miss cycles
system.l2.demand_mshr_miss_latency::.cpu.data 103933987000                       # number of demand (read+write) MSHR miss cycles
system.l2.demand_mshr_miss_latency::total 103965999500                       # number of demand (read+write) MSHR miss cycles
system.l2.overall_mshr_miss_latency::.cpu.inst     32012500                       # number of overall MSHR miss cycles
system.l2.overall_mshr_miss_latency::.cpu.data 103933987000                       # number of overall MSHR miss cycles
system.l2.overall_mshr_miss_latency::total 103965999500                       # number of overall MSHR miss cycles
system.l2.demand_mshr_miss_rate::.cpu.inst     0.727003                       # mshr miss rate for demand accesses
system.l2.demand_mshr_miss_rate::.cpu.data     0.999988                       # mshr miss rate for demand accesses
system.l2.demand_mshr_miss_rate::total       0.999864                       # mshr miss rate for demand accesses
system.l2.overall_mshr_miss_rate::.cpu.inst     0.727003                       # mshr miss rate for overall accesses
system.l2.overall_mshr_miss_rate::.cpu.data     0.999988                       # mshr miss rate for overall accesses
system.l2.overall_mshr_miss_rate::total      0.999864                       # mshr miss rate for overall accesses
system.l2.demand_avg_mshr_miss_latency::.cpu.inst 65331.632653                       # average overall mshr miss latency
system.l2.demand_avg_mshr_miss_latency::.cpu.data 69855.104443                       # average overall mshr miss latency
system.l2.demand_avg_mshr_miss_latency::total 69853.615200                       # average overall mshr miss latency
system.l2.overall_avg_mshr_miss_latency::.cpu.inst 65331.632653                       # average overall mshr miss latency
system.l2.overall_avg_mshr_miss_latency::.cpu.data 69855.104443                       # average overall mshr miss latency
system.l2.overall_avg_mshr_miss_latency::total 69853.615200                       # average overall mshr miss latency
system.l2.replacements                        1455572                       # number of replacements
system.l2.WritebackDirty_hits::.writebacks      1486735                       # number of WritebackDirty hits
system.l2.WritebackDirty_hits::total          1486735                       # number of WritebackDirty hits
system.l2.WritebackDirty_accesses::.writebacks      1486735                       # number of WritebackDirty accesses(hits+misses)
system.l2.WritebackDirty_accesses::total      1486735                       # number of WritebackDirty accesses(hits+misses)
system.l2.WritebackClean_hits::.writebacks          412                       # number of WritebackClean hits
system.l2.WritebackClean_hits::total              412                       # number of WritebackClean hits
system.l2.WritebackClean_accesses::.writebacks          412                       # number of WritebackClean accesses(hits+misses)
system.l2.WritebackClean_accesses::total          412                       # number of WritebackClean accesses(hits+misses)
system.l2.ReadExReq_misses::.cpu.data         1487741                       # number of ReadExReq misses
system.l2.ReadExReq_misses::total             1487741                       # number of ReadExReq misses
system.l2.ReadExReq_miss_latency::.cpu.data 118803211000                       # number of ReadExReq miss cycles
system.l2.ReadExReq_miss_latency::total  118803211000                       # number of ReadExReq miss cycles
system.l2.ReadExReq_accesses::.cpu.data       1487741                       # number of ReadExReq accesses(hits+misses)
system.l2.ReadExReq_accesses::total           1487741                       # number of ReadExReq accesses(hits+misses)
system.l2.ReadExReq_miss_rate::.cpu.data            1                       # miss rate for ReadExReq accesses
system.l2.ReadExReq_miss_rate::total                1                       # miss rate for ReadExReq accesses
system.l2.ReadExReq_avg_miss_latency::.cpu.data 79854.767060                       # average ReadExReq miss latency
system.l2.ReadExReq_avg_miss_latency::total 79854.767060                       # average ReadExReq miss latency
system.l2.ReadExReq_mshr_misses::.cpu.data      1487741                       # number of ReadExReq MSHR misses
system.l2.ReadExReq_mshr_misses::total        1487741                       # number of ReadExReq MSHR misses
system.l2.ReadExReq_mshr_miss_latency::.cpu.data 103925811000                       # number of ReadExReq MSHR miss cycles
system.l2.ReadExReq_mshr_miss_latency::total 103925811000                       # number of ReadExReq MSHR miss cycles
system.l2.ReadExReq_mshr_miss_rate::.cpu.data            1                       # mshr miss rate for ReadExReq accesses
system.l2.ReadExReq_mshr_miss_rate::total            1                       # mshr miss rate for ReadExReq accesses
system.l2.ReadExReq_avg_mshr_miss_latency::.cpu.data 69854.773781                       # average ReadExReq mshr miss latency
system.l2.ReadExReq_avg_mshr_miss_latency::total 69854.773781                       # average ReadExReq mshr miss latency
system.l2.ReadCleanReq_hits::.cpu.inst            184                       # number of ReadCleanReq hits
system.l2.ReadCleanReq_hits::total                184                       # number of ReadCleanReq hits
system.l2.ReadCleanReq_misses::.cpu.inst          490                       # number of ReadCleanReq misses
system.l2.ReadCleanReq_misses::total              490                       # number of ReadCleanReq misses
system.l2.ReadCleanReq_miss_latency::.cpu.inst     36912500                       # number of ReadCleanReq miss cycles
system.l2.ReadCleanReq_miss_latency::total     36912500                       # number of ReadCleanReq miss cycles
system.l2.ReadCleanReq_accesses::.cpu.inst          674                       # number of ReadCleanReq accesses(hits+misses)
system.l2.ReadCleanReq_accesses::total            674                       # number of ReadCleanReq accesses(hits+misses)
system.l2.ReadCleanReq_miss_rate::.cpu.inst     0.727003                       # miss rate for ReadCleanReq accesses
system.l2.ReadCleanReq_miss_rate::total      0.727003                       # miss rate for ReadCleanReq accesses
system.l2.ReadCleanReq_avg_miss_latency::.cpu.inst 75331.632653                       # average ReadCleanReq miss latency
system.l2.ReadCleanReq_avg_miss_latency::total 75331.632653                       # average ReadCleanReq miss latency
system.l2.ReadCleanReq_mshr_misses::.cpu.inst          490                       # number of ReadCleanReq MSHR misses
system.l2.ReadCleanReq_mshr_misses::total          490                       # number of ReadCleanReq MSHR misses
system.l2.ReadCleanReq_mshr_miss_latency::.cpu.inst     32012500                       # number of ReadCleanReq MSHR miss cycles
system.l2.ReadCleanReq_mshr_miss_latency::total     32012500                       # number of ReadCleanReq MSHR miss cycles
system.l2.ReadCleanReq_mshr_miss_rate::.cpu.inst     0.727003                       # mshr miss rate for ReadCleanReq accesses
system.l2.ReadCleanReq_mshr_miss_rate::total     0.727003                       # mshr miss rate for ReadCleanReq accesses
system.l2.ReadCleanReq_avg_mshr_miss_latency::.cpu.inst 65331.632653                       # average ReadCleanReq mshr miss latency
system.l2.ReadCleanReq_avg_mshr_miss_latency::total 65331.632653                       # average ReadCleanReq mshr miss latency
system.l2.ReadSharedReq_hits::.cpu.data            15                       # number of ReadSharedReq hits
system.l2.ReadSharedReq_hits::total                15                       # number of ReadSharedReq hits
system.l2.ReadSharedReq_misses::.cpu.data          113                       # number of ReadSharedReq misses
system.l2.ReadSharedReq_misses::total             113                       # number of ReadSharedReq misses
system.l2.ReadSharedReq_miss_latency::.cpu.data      9477500                       # number of ReadSharedReq miss cycles
system.l2.ReadSharedReq_miss_latency::total      9477500                       # number of ReadSharedReq miss cycles
system.l2.ReadSharedReq_accesses::.cpu.data          128                       # number of ReadSharedReq accesses(hits+misses)
system.l2.ReadSharedReq_accesses::total           128                       # number of ReadSharedReq accesses(hits+misses)
system.l2.ReadSharedReq_miss_rate::.cpu.data     0.882812                       # miss rate for ReadSharedReq accesses
system.l2.ReadSharedReq_miss_rate::total     0.882812                       # miss rate for ReadSharedReq accesses
system.l2.ReadSharedReq_avg_miss_latency::.cpu.data 83871.681416                       # average ReadSharedReq miss latency
system.l2.ReadSharedReq_avg_miss_latency::total 83871.681416                       # average ReadSharedReq miss latency
system.l2.ReadSharedReq_mshr_hits::.cpu.data            3                       # number of ReadSharedReq MSHR hits
system.l2.ReadSharedReq_mshr_hits::total            3                       # number of ReadSharedReq MSHR hits
system.l2.ReadSharedReq_mshr_misses::.cpu.data          110                       # number of ReadSharedReq MSHR misses
system.l2.ReadSharedReq_mshr_misses::total          110                       # number of ReadSharedReq MSHR misses
system.l2.ReadSharedReq_mshr_miss_latency::.cpu.data      8176000                       # number of ReadSharedReq MSHR miss cycles
system.l2.ReadSharedReq_mshr_miss_latency::total      8176000                       # number of ReadSharedReq MSHR miss cycles
system.l2.ReadSharedReq_mshr_miss_rate::.cpu.data     0.859375                       # mshr miss rate for ReadSharedReq accesses
system.l2.ReadSharedReq_mshr_miss_rate::total     0.859375                       # mshr miss rate for ReadSharedReq accesses
system.l2.ReadSharedReq_avg_mshr_miss_latency::.cpu.data 74327.272727                       # average ReadSharedReq mshr miss latency
system.l2.ReadSharedReq_avg_mshr_miss_latency::total 74327.272727                       # average ReadSharedReq mshr miss latency
system.l2.tags.pwrStateResidencyTicks::UNDEFINED 174652525000                       # Cumulative time (in ticks) in various power states
system.l2.tags.tagsinuse                 32426.582480                       # Cycle average of tags in use
system.l2.tags.total_refs                     2975781                       # Total number of references to valid blocks.
system.l2.tags.sampled_refs                   1488340                       # Sample count of references to valid blocks.
system.l2.tags.avg_refs                      1.999396                       # Average number of references to valid blocks.
system.l2.tags.warmup_cycle                     77000                       # Cycle when the warmup percentage was hit.
system.l2.tags.occ_blocks::.cpu.inst         9.607511                       # Average occupied blocks per requestor
system.l2.tags.occ_blocks::.cpu.data     32416.974969                       # Average occupied blocks per requestor
system.l2.tags.occ_percent::.cpu.inst        0.000293                       # Average percentage of cache occupancy
system.l2.tags.occ_percent::.cpu.data        0.989288                       # Average percentage of cache occupancy
system.l2.tags.occ_percent::total            0.989581                       # Average percentage of cache occupancy
system.l2.tags.occ_task_id_blocks::1024         32768                       # Occupied blocks per task id
system.l2.tags.age_task_id_blocks_1024::0           86                       # Occupied blocks per task id
system.l2.tags.age_task_id_blocks_1024::1          763                       # Occupied blocks per task id
system.l2.tags.age_task_id_blocks_1024::2         7644                       # Occupied blocks per task id
system.l2.tags.age_task_id_blocks_1024::3        24275                       # Occupied blocks per task id
system.l2.tags.occ_task_id_percent::1024            1                       # Percentage of cache occupancy per task id
system.l2.tags.tag_accesses                  25294620                       # Number of tag accesses
system.l2.tags.data_accesses                 25294620                       # Number of data accesses
system.cpu_voltage_domain.voltage                   1                       # Voltage in Volts
system.mem_ctrls.pwrStateResidencyTicks::UNDEFINED 174652525000                       # Cumulative time (in ticks) in various power states
system.mem_ctrls.bytes_read::.cpu.inst          31360                       # Number of bytes read from this memory
system.mem_ctrls.bytes_read::.cpu.data       95222400                       # Number of bytes read from this memory
system.mem_ctrls.bytes_read::total           95253760                       # Number of bytes read from this memory
system.mem_ctrls.bytes_inst_read::.cpu.inst        31360                       # Number of instructions bytes read from this memory
system.mem_ctrls.bytes_inst_read::total         31360                       # Number of instructions bytes read from this memory
system.mem_ctrls.bytes_written::.writebacks     93119296                       # Number of bytes written to this memory
system.mem_ctrls.bytes_written::total        93119296                       # Number of bytes written to this memory
system.mem_ctrls.num_reads::.cpu.inst             490                       # Number of read requests responded to by this memory
system.mem_ctrls.num_reads::.cpu.data         1487850                       # Number of read requests responded to by this memory
system.mem_ctrls.num_reads::total             1488340                       # Number of read requests responded to by this memory
system.mem_ctrls.num_writes::.writebacks      1454989                       # Number of write requests responded to by this memory
system.mem_ctrls.num_writes::total            1454989                       # Number of write requests responded to by this memory
system.mem_ctrls.bw_read::.cpu.inst            179557                       # Total read bandwidth from this memory (bytes/s)
system.mem_ctrls.bw_read::.cpu.data         545210554                       # Total read bandwidth from this memory (bytes/s)
system.mem_ctrls.bw_read::total             545390111                       # Total read bandwidth from this memory (bytes/s)
system.mem_ctrls.bw_inst_read::.cpu.inst       179557                       # Instruction read bandwidth from this memory (bytes/s)
system.mem_ctrls.bw_inst_read::total           179557                       # Instruction read bandwidth from this memory (bytes/s)
system.mem_ctrls.bw_write::.writebacks      533168908                       # Write bandwidth from this memory (bytes/s)
system.mem_ctrls.bw_write::total            533168908                       # Write bandwidth from this memory (bytes/s)
system.mem_ctrls.bw_total::.writebacks      533168908                       # Total bandwidth to/from this memory (bytes/s)
system.mem_ctrls.bw_total::.cpu.inst           179557                       # Total bandwidth to/from this memory (bytes/s)
system.mem_ctrls.bw_total::.cpu.data        545210554                       # Total bandwidth to/from this memory (bytes/s)
system.mem_ctrls.bw_total::total           1078559019                       # Total bandwidth to/from this memory (bytes/s)
system.mem_ctrls.avgPriority_.writebacks::samples   1454989.00                       # Average QoS priority value for accepted requests
system.mem_ctrls.avgPriority_.cpu.inst::samples       490.00                       # Average QoS priority value for accepted requests
system.mem_ctrls.avgPriority_.cpu.data::samples   1487850.00                       # Average QoS priority value for accepted requests
system.mem_ctrls.priorityMinLatency      0.000000018750                       # per QoS priority minimum request to response latency (s)
system.mem_ctrls.priorityMaxLatency      0.000908222250                       # per QoS priority maximum request to response latency (s)
system.mem_ctrls.numReadWriteTurnArounds        90485                       # Number of turnarounds from READ to WRITE
system.mem_ctrls.numWriteReadTurnArounds        90485                       # Number of turnarounds from WRITE to READ
system.mem_ctrls.numStayReadState             4382412                       # Number of times bus staying in READ state
system.mem_ctrls.numStayWriteState            1366839                       # Number of times bus staying in WRITE state
system.mem_ctrls.readReqs                     1488340                       # Number of read requests accepted
system.mem_ctrls.writeReqs                    1454989                       # Number of write requests accepted
system.mem_ctrls.readBursts                   1488340                       # Number of DRAM read bursts, including those serviced by the write queue
system.mem_ctrls.writeBursts                  1454989                       # Number of DRAM write bursts, including those merged in the write queue
system.mem_ctrls.servicedByWrQ                      0                       # Number of DRAM read bursts serviced by the write queue
system.mem_ctrls.mergedWrBursts                     0                       # Number of DRAM write bursts merged with an existing one
system.mem_ctrls.neitherReadNorWriteReqs            0                       # Number of requests that are neither read nor write
system.mem_ctrls.perBankRdBursts::0             93064                       # Per bank write bursts
system.mem_ctrls.perBankRdBursts::1             92958                       # Per bank write bursts
system.mem_ctrls.perBankRdBursts::2             92992                       # Per bank write bursts
system.mem_ctrls.perBankRdBursts::3             93001                       # Per bank write bursts
system.mem_ctrls.perBankRdBursts::4             93101                       # Per bank write bursts
system.mem_ctrls.perBankRdBursts::5             93074                       # Per bank write bursts
system.mem_ctrls.perBankRdBursts::6             93061                       # Per bank write bursts
system.mem_ctrls.perBankRdBursts::7             93078                       # Per bank write bursts
system.mem_ctrls.perBankRdBursts::8             93156                       # Per bank write bursts
system.mem_ctrls.perBankRdBursts::9             93056                       # Per bank write bursts
system.mem_ctrls.perBankRdBursts::10            92955                       # Per bank write bursts
system.mem_ctrls.perBankRdBursts::11            92953                       # Per bank write bursts
system.mem_ctrls.perBankRdBursts::12            92999                       # Per bank write bursts
system.mem_ctrls.perBankRdBursts::13            92951                       # Per bank write bursts
system.mem_ctrls.perBankRdBursts::14            92954                       # Per bank write bursts
system.mem_ctrls.perBankRdBursts::15            92987                       # Per bank write bursts
system.mem_ctrls.perBankWrBursts::0             90924                       # Per bank write bursts
system.mem_ctrls.perBankWrBursts::1             90904                       # Per bank write bursts
system.mem_ctrls.perBankWrBursts::2             90895                       # Per bank write bursts
system.mem_ctrls.perBankWrBursts::3             90949                       # Per bank write bursts
system.mem_ctrls.perBankWrBursts::4             91009                       # Per bank write bursts
system.mem_ctrls.perBankWrBursts::5             91008                       # Per bank write bursts
system.mem_ctrls.perBankWrBursts::6             91008                       # Per bank write bursts
system.mem_ctrls.perBankWrBursts::7             91008                       # Per bank write bursts
system.mem_ctrls.perBankWrBursts::8             91008                       # Per bank write bursts
system.mem_ctrls.perBankWrBursts::9             90968                       # Per bank write bursts
system.mem_ctrls.perBankWrBursts::10            90880                       # Per bank write bursts
system.mem_ctrls.perBankWrBursts::11            90880                       # Per bank write bursts
system.mem_ctrls.perBankWrBursts::12            90880                       # Per bank write bursts
system.mem_ctrls.perBankWrBursts::13            90880                       # Per bank write bursts
system.mem_ctrls.perBankWrBursts::14            90880                       # Per bank write bursts
system.mem_ctrls.perBankWrBursts::15            90884                       # Per bank write bursts
system.mem_ctrls.avgRdQLen                       1.00                       # Average read queue length when enqueuing
system.mem_ctrls.avgWrQLen                      25.37                       # Average write queue length when enqueuing
system.mem_ctrls.totQLat                  14785601000                       # Total ticks spent queuing
system.mem_ctrls.totBusLat                 7441700000                       # Total ticks spent in databus transfers
system.mem_ctrls.totMemAccLat             42691976000                       # Total ticks spent from burst creation until serviced by the DRAM
system.mem_ctrls.avgQLat                      9934.29                       # Average queueing delay per DRAM burst
system.mem_ctrls.avgBusLat                    5000.00                       # Average bus latency per DRAM burst
system.mem_ctrls.avgMemAccLat                28684.29                       # Average memory access latency per DRAM burst
system.mem_ctrls.numRdRetry                         0                       # Number of times read queue was full causing retry
system.mem_ctrls.numWrRetry                         0                       # Number of times write queue was full causing retry
system.mem_ctrls.readRowHits                  1364882                       # Number of row buffer hits during reads
system.mem_ctrls.writeRowHits                 1350156                       # Number of row buffer hits during writes
system.mem_ctrls.readRowHitRate                 91.70                       # Row buffer hit rate for reads
system.mem_ctrls.writeRowHitRate                92.79                       # Row buffer hit rate for writes
system.mem_ctrls.readPktSize::0                     0                       # Read request sizes (log2)
system.mem_ctrls.readPktSize::1                     0                       # Read request sizes (log2)
system.mem_ctrls.readPktSize::2                     0                       # Read request sizes (log2)
system.mem_ctrls.readPktSize::3                     0                       # Read request sizes (log2)
system.mem_ctrls.readPktSize::4                     0                       # Read request sizes (log2)
system.mem_ctrls.readPktSize::5                     0                       # Read request sizes (log2)
system.mem_ctrls.readPktSize::6               1488340                       # Read request sizes (log2)
system.mem_ctrls.writePktSize::0                    0                       # Write request sizes (log2)
system.mem_ctrls.writePktSize::1                    0                       # Write request sizes (log2)
system.mem_ctrls.writePktSize::2                    0                       # Write request sizes (log2)
system.mem_ctrls.writePktSize::3                    0                       # Write request sizes (log2)
system.mem_ctrls.writePktSize::4                    0                       # Write request sizes (log2)
system.mem_ctrls.writePktSize::5                    0                       # Write request sizes (log2)
system.mem_ctrls.writePktSize::6              1454989                       # Write request sizes (log2)
system.mem_ctrls.rdQLenPdf::0                 1488244                       # What read queue length does an incoming req see
system.mem_ctrls.rdQLenPdf::1                      86                       # What read queue length does an incoming req see
system.mem_ctrls.rdQLenPdf::2                       9                       # What read queue length does an incoming req see
system.mem_ctrls.rdQLenPdf::3                       1                       # What read queue length does an incoming req see
system.mem_ctrls.rdQLenPdf::4                       0                       # What read queue length does an incoming req see
system.mem_ctrls.rdQLenPdf::5                       0                       # What read queue length does an incoming req see
system.mem_ctrls.rdQLenPdf::6                       0                       # What read queue length does an incoming req see
system.mem_ctrls.rdQLenPdf::7                       0                       # What read queue length does an incoming req see
system.mem_ctrls.rdQLenPdf::8                       0                       # What read queue length does an incoming req see
system.mem_ctrls.rdQLenPdf::9                       0                       # What read queue length does an incoming req see
system.mem_ctrls.rdQLenPdf::10                      0                       # What read queue length does an incoming req see
system.mem_ctrls.rdQLenPdf::11                      0                       # What read queue length does an incoming req see
system.mem_ctrls.rdQLenPdf::12                      0                       # What read queue length does an incoming req see
system.mem_ctrls.rdQLenPdf::13                      0                       # What read queue length does an incoming req see
system.mem_ctrls.rdQLenPdf::14                      0                       # What read queue length does an incoming req see
system.mem_ctrls.rdQLenPdf::15                      0                       # What read queue length does an incoming req see
system.mem_ctrls.rdQLenPdf::16                      0                       # What read queue length does an incoming req see
system.mem_ctrls.rdQLenPdf::17                      0                       # What read queue length does an incoming req see
system.mem_ctrls.rdQLenPdf::18                      0                       # What read queue length does an incoming req see
system.mem_ctrls.rdQLenPdf::19                      0                       # What read queue length does an incoming req see
system.mem_ctrls.rdQLenPdf::20                      0                       # What read queue length does an incoming req see
system.mem_ctrls.rdQLenPdf::21                      0                       # What read queue length does an incoming req see
system.mem_ctrls.rdQLenPdf::22                      0                       # What read queue length does an incoming req see
system.mem_ctrls.rdQLenPdf::23                      0                       # What read queue length does an incoming req see
system.mem_ctrls.rdQLenPdf::24                      0                       # What read queue length does an incoming req see
system.mem_ctrls.rdQLenPdf::25                      0                       # What read queue length does an incoming req see
system.mem_ctrls.rdQLenPdf::26                      0                       # What read queue length does an incoming req see
system.mem_ctrls.rdQLenPdf::27                      0                       # What read queue length does an incoming req see
system.mem_ctrls.rdQLenPdf::28                      0                       # What read queue length does an incoming req see
system.mem_ctrls.rdQLenPdf::29                      0                       # What read queue length does an incoming req see
system.mem_ctrls.rdQLenPdf::30                      0                       # What read queue length does an incoming req see
system.mem_ctrls.rdQLenPdf::31                      0                       # What read queue length does an incoming req see
system.mem_ctrls.wrQLenPdf::0                       1                       # What write queue length does an incoming req see
system.mem_ctrls.wrQLenPdf::1                       1                       # What write queue length does an incoming req see
system.mem_ctrls.wrQLenPdf::2                       1                       # What write queue length does an incoming req see
system.mem_ctrls.wrQLenPdf::3                       1                       # What write queue length does an incoming req see
system.mem_ctrls.wrQLenPdf::4                       1                       # What write queue length does an incoming req see
system.mem_ctrls.wrQLenPdf::5                       1                       # What write queue length does an incoming req see
system.mem_ctrls.wrQLenPdf::6                       1                       # What write queue length does an incoming req see
system.mem_ctrls.wrQLenPdf::7                       1                       # What write queue length does an incoming req see
system.mem_ctrls.wrQLenPdf::8                       1                       # What write queue length does an incoming req see
system.mem_ctrls.wrQLenPdf::9                       1                       # What write queue length does an incoming req see
system.mem_ctrls.wrQLenPdf::10                      1                       # What write queue length does an incoming req see
system.mem_ctrls.wrQLenPdf::11                      1                       # What write queue length does an incoming req see
system.mem_ctrls.wrQLenPdf::12                      1                       # What write queue length does an incoming req see
system.mem_ctrls.wrQLenPdf::13                      1                       # What write queue length does an incoming req see
system.mem_ctrls.wrQLenPdf::14                      1                       # What write queue length does an incoming req see
system.mem_ctrls.wrQLenPdf::15                   1254                       # What write queue length does an incoming req see
system.mem_ctrls.wrQLenPdf::16                   3091                       # What write queue length does an incoming req see
system.mem_ctrls.wrQLenPdf::17                  91391                       # What write queue length does an incoming req see
system.mem_ctrls.wrQLenPdf::18                  90487                       # What write queue length does an incoming req see
system.mem_ctrls.wrQLenPdf::19                  90654                       # What write queue length does an incoming req see
system.mem_ctrls.wrQLenPdf::20                  90543                       # What write queue length does an incoming req see
system.mem_ctrls.wrQLenPdf::21                  90494                       # What write queue length does an incoming req see
system.mem_ctrls.wrQLenPdf::22                  90487                       # What write queue length does an incoming req see
system.mem_ctrls.wrQLenPdf::23                  90487                       # What write queue length does an incoming req see
system.mem_ctrls.wrQLenPdf::24                  90485                       # What write queue length does an incoming req see
system.mem_ctrls.wrQLenPdf::25                  92206                       # What write queue length does an incoming req see
system.mem_ctrls.wrQLenPdf::26                  90485                       # What write queue length does an incoming req see
system.mem_ctrls.wrQLenPdf::27                  90485                       # What write queue length does an incoming req see
system.mem_ctrls.wrQLenPdf::28                  90485                       # What write queue length does an incoming req see
system.mem_ctrls.wrQLenPdf::29                  90485                       # What write queue length does an incoming req see
system.mem_ctrls.wrQLenPdf::30                  90485                       # What write queue length does an incoming req see
system.mem_ctrls.wrQLenPdf::31                  90485                       # What write queue length does an incoming req see
system.mem_ctrls.wrQLenPdf::32                  90485                       # What write queue length does an incoming req see
system.mem_ctrls.wrQLenPdf::33                      0                       # What write queue length does an incoming req see
system.mem_ctrls.wrQLenPdf::34                      0                       # What write queue length does an incoming req see
system.mem_ctrls.wrQLenPdf::35                      0                       # What write queue length does an incoming req see
system.mem_ctrls.wrQLenPdf::36                      0                       # What write queue length does an incoming req see
system.mem_ctrls.wrQLenPdf::37                      0                       # What write queue length does an incoming req see
system.mem_ctrls.wrQLenPdf::38                      0                       # What write queue length does an incoming req see
system.mem_ctrls.wrQLenPdf::39                      0                       # What write queue length does an incoming req see
system.mem_ctrls.wrQLenPdf::40                      0                       # What write queue length does an incoming req see
system.mem_ctrls.wrQLenPdf::41                      0                       # What write queue length does an incoming req see
system.mem_ctrls.wrQLenPdf::42                      0                       # What write queue length does an incoming req see
system.mem_ctrls.wrQLenPdf::43                      0                       # What write queue length does an incoming req see
system.mem_ctrls.wrQLenPdf::44                      0                       # What write queue length does an incoming req see
system.mem_ctrls.wrQLenPdf::45                      0                       # What write queue length does an incoming req see
system.mem_ctrls.wrQLenPdf::46                      0                       # What write queue length does an incoming req see
system.mem_ctrls.wrQLenPdf::47                      0                       # What write queue length does an incoming req see
system.mem_ctrls.wrQLenPdf::48                      0                       # What write queue length does an incoming req see
system.mem_ctrls.wrQLenPdf::49                      0                       # What write queue length does an incoming req see
system.mem_ctrls.wrQLenPdf::50                      0                       # What write queue length does an incoming req see
system.mem_ctrls.wrQLenPdf::51                      0                       # What write queue length does an incoming req see
system.mem_ctrls.wrQLenPdf::52                      0                       # What write queue length does an incoming req see
system.mem_ctrls.wrQLenPdf::53                      0                       # What write queue length does an incoming req see
system.mem_ctrls.wrQLenPdf::54                      0                       # What write queue length does an incoming req see
system.mem_ctrls.wrQLenPdf::55                      0                       # What write queue length does an incoming req see
system.mem_ctrls.wrQLenPdf::56                      0                       # What write queue length does an incoming req see
system.mem_ctrls.wrQLenPdf::57                      0                       # What write queue length does an incoming req see
system.mem_ctrls.wrQLenPdf::58                      0                       # What write queue length does an incoming req see
system.mem_ctrls.wrQLenPdf::59                      0                       # What write queue length does an incoming req see
system.mem_ctrls.wrQLenPdf::60                      0                       # What write queue length does an incoming req see
system.mem_ctrls.wrQLenPdf::61                      0                       # What write queue length does an incoming req see
system.mem_ctrls.wrQLenPdf::62                      0                       # What write queue length does an incoming req see
system.mem_ctrls.wrQLenPdf::63                      0                       # What write queue length does an incoming req see
system.mem_ctrls.bytesPerActivate::samples       228266                       # Bytes accessed per row activation
system.mem_ctrls.bytesPerActivate::mean    825.226148                       # Bytes accessed per row activation
system.mem_ctrls.bytesPerActivate::gmean   694.818011                       # Bytes accessed per row activation
system.mem_ctrls.bytesPerActivate::stdev   317.925218                       # Bytes accessed per row activation
system.mem_ctrls.bytesPerActivate::0-127        12773      5.60%      5.60% # Bytes accessed per row activation
system.mem_ctrls.bytesPerActivate::128-255         9328      4.09%      9.68% # Bytes accessed per row activation
system.mem_ctrls.bytesPerActivate::256-383         7370      3.23%     12.91% # Bytes accessed per row activation
system.mem_ctrls.bytesPerActivate::384-511        11161      4.89%     17.80% # Bytes accessed per row activation
system.mem_ctrls.bytesPerActivate::512-639        18041      7.90%     25.70% # Bytes accessed per row activation
system.mem_ctrls.bytesPerActivate::640-767         6375      2.79%     28.50% # Bytes accessed per row activation
system.mem_ctrls.bytesPerActivate::768-895         5947      2.61%     31.10% # Bytes accessed per row activation
system.mem_ctrls.bytesPerActivate::896-1023         9483      4.15%     35.26% # Bytes accessed per row activation
system.mem_ctrls.bytesPerActivate::1024-1151       147788     64.74%    100.00% # Bytes accessed per row activation
system.mem_ctrls.bytesPerActivate::total       228266                       # Bytes accessed per row activation
system.mem_ctrls.rdPerTurnAround::samples        90485                       # Reads before turning the bus around for writes
system.mem_ctrls.rdPerTurnAround::mean      16.448395                       # Reads before turning the bus around for writes
system.mem_ctrls.rdPerTurnAround::gmean     16.079680                       # Reads before turning the bus around for writes
system.mem_ctrls.rdPerTurnAround::stdev    103.239431                       # Reads before turning the bus around for writes
system.mem_ctrls.rdPerTurnAround::0-1023        90483    100.00%    100.00% # Reads before turning the bus around for writes
system.mem_ctrls.rdPerTurnAround::2048-3071            1      0.00%    100.00% # Reads before turning the bus around for writes
system.mem_ctrls.rdPerTurnAround::30720-31743            1      0.00%    100.00% # Reads before turning the bus around for writes
system.mem_ctrls.rdPerTurnAround::total         90485                       # Reads before turning the bus around for writes
system.mem_ctrls.wrPerTurnAround::samples        90485                       # Writes before turning the bus around for reads
system.mem_ctrls.wrPerTurnAround::mean      16.079626                       # Writes before turning the bus around for reads
system.mem_ctrls.wrPerTurnAround::gmean     16.074133                       # Writes before turning the bus around for reads
system.mem_ctrls.wrPerTurnAround::stdev      0.440923                       # Writes before turning the bus around for reads
system.mem_ctrls.wrPerTurnAround::16            87507     96.71%     96.71% # Writes before turning the bus around for reads
system.mem_ctrls.wrPerTurnAround::17                4      0.00%     96.71% # Writes before turning the bus around for reads
system.mem_ctrls.wrPerTurnAround::18             1721      1.90%     98.62% # Writes before turning the bus around for reads
system.mem_ctrls.wrPerTurnAround::19             1253      1.38%    100.00% # Writes before turning the bus around for reads
system.mem_ctrls.wrPerTurnAround::total         90485                       # Writes before turning the bus around for reads
[...]
system.cpu.icache.ReadReq_avg_miss_latency::.cpu.inst 60163.204748                       # average ReadReq miss latency
system.cpu.icache.ReadReq_avg_miss_latency::total 60163.204748                       # average ReadReq miss latency
system.cpu.icache.ReadReq_mshr_misses::.cpu.inst          674                       # number of ReadReq MSHR misses
system.cpu.icache.ReadReq_mshr_misses::total          674                       # number of ReadReq MSHR misses
system.cpu.icache.ReadReq_mshr_miss_latency::.cpu.inst     39876000                       # number of ReadReq MSHR miss cycles
system.cpu.icache.ReadReq_mshr_miss_latency::total     39876000                       # number of ReadReq MSHR miss cycles
system.cpu.icache.ReadReq_mshr_miss_rate::.cpu.inst     0.000113                       # mshr miss rate for ReadReq accesses
system.cpu.icache.ReadReq_mshr_miss_rate::total     0.000113                       # mshr miss rate for ReadReq accesses
system.cpu.icache.ReadReq_avg_mshr_miss_latency::.cpu.inst 59163.204748                       # average ReadReq mshr miss latency
system.cpu.icache.ReadReq_avg_mshr_miss_latency::total 59163.204748                       # average ReadReq mshr miss latency
system.cpu.icache.tags.pwrStateResidencyTicks::UNDEFINED 174652525000                       # Cumulative time (in ticks) in various power states
system.cpu.icache.tags.tagsinuse           239.972395                       # Cycle average of tags in use
system.cpu.icache.tags.total_refs             5963364                       # Total number of references to valid blocks.
system.cpu.icache.tags.sampled_refs               674                       # Sample count of references to valid blocks.
system.cpu.icache.tags.avg_refs           8847.721068                       # Average number of references to valid blocks.
system.cpu.icache.tags.warmup_cycle             87500                       # Cycle when the warmup percentage was hit.
system.cpu.icache.tags.occ_blocks::.cpu.inst   239.972395                       # Average occupied blocks per requestor
system.cpu.icache.tags.occ_percent::.cpu.inst     0.937392                       # Average percentage of cache occupancy
system.cpu.icache.tags.occ_percent::total     0.937392                       # Average percentage of cache occupancy
system.cpu.icache.tags.occ_task_id_blocks::1024          240                       # Occupied blocks per task id
system.cpu.icache.tags.age_task_id_blocks_1024::4          240                       # Occupied blocks per task id
system.cpu.icache.tags.occ_task_id_percent::1024     0.937500                       # Percentage of cache occupancy per task id
system.cpu.icache.tags.tag_accesses          11927402                       # Number of tag accesses
system.cpu.icache.tags.data_accesses         11927402                       # Number of data accesses
system.cpu.dtb.walker.pwrStateResidencyTicks::UNDEFINED 174652525000                       # Cumulative time (in ticks) in various power states
system.cpu.dtb.stage2_mmu.stage2_tlb.walker.pwrStateResidencyTicks::UNDEFINED 174652525000                       # Cumulative time (in ticks) in various power states
system.cpu.dcache.pwrStateResidencyTicks::UNDEFINED 174652525000                       # Cumulative time (in ticks) in various power states
system.cpu.dcache.demand_hits::.cpu.data     45831507                       # number of demand (read+write) hits
system.cpu.dcache.demand_hits::total         45831507                       # number of demand (read+write) hits
system.cpu.dcache.overall_hits::.cpu.data     45831539                       # number of overall hits
system.cpu.dcache.overall_hits::total        45831539                       # number of overall hits
system.cpu.dcache.demand_misses::.cpu.data      2975575                       # number of demand (read+write) misses
system.cpu.dcache.demand_misses::total        2975575                       # number of demand (read+write) misses
system.cpu.dcache.overall_misses::.cpu.data      2975595                       # number of overall misses
system.cpu.dcache.overall_misses::total       2975595                       # number of overall misses
system.cpu.dcache.demand_miss_latency::.cpu.data 237167485500                       # number of demand (read+write) miss cycles
system.cpu.dcache.demand_miss_latency::total 237167485500                       # number of demand (read+write) miss cycles
system.cpu.dcache.overall_miss_latency::.cpu.data 237167485500                       # number of overall miss cycles
system.cpu.dcache.overall_miss_latency::total 237167485500                       # number of overall miss cycles
system.cpu.dcache.demand_accesses::.cpu.data     48807082                       # number of demand (read+write) accesses
system.cpu.dcache.demand_accesses::total     48807082                       # number of demand (read+write) accesses
system.cpu.dcache.overall_accesses::.cpu.data     48807134                       # number of overall (read+write) accesses
system.cpu.dcache.overall_accesses::total     48807134                       # number of overall (read+write) accesses
system.cpu.dcache.demand_miss_rate::.cpu.data     0.060966                       # miss rate for demand accesses
system.cpu.dcache.demand_miss_rate::total     0.060966                       # miss rate for demand accesses
system.cpu.dcache.overall_miss_rate::.cpu.data     0.060966                       # miss rate for overall accesses
system.cpu.dcache.overall_miss_rate::total     0.060966                       # miss rate for overall accesses
system.cpu.dcache.demand_avg_miss_latency::.cpu.data 79704.758072                       # average overall miss latency
system.cpu.dcache.demand_avg_miss_latency::total 79704.758072                       # average overall miss latency
system.cpu.dcache.overall_avg_miss_latency::.cpu.data 79704.222349                       # average overall miss latency
system.cpu.dcache.overall_avg_miss_latency::total 79704.222349                       # average overall miss latency
system.cpu.dcache.blocked_cycles::no_mshrs            0                       # number of cycles access was blocked
system.cpu.dcache.blocked_cycles::no_targets            0                       # number of cycles access was blocked
system.cpu.dcache.blocked::no_mshrs                 0                       # number of cycles access was blocked
system.cpu.dcache.blocked::no_targets               0                       # number of cycles access was blocked
system.cpu.dcache.avg_blocked_cycles::no_mshrs          nan                       # average number of cycles each access was blocked
system.cpu.dcache.avg_blocked_cycles::no_targets          nan                       # average number of cycles each access was blocked
system.cpu.dcache.writebacks::.writebacks      1486735                       # number of writebacks
system.cpu.dcache.writebacks::total           1486735                       # number of writebacks
system.cpu.dcache.demand_mshr_hits::.cpu.data      1487722                       # number of demand (read+write) MSHR hits
system.cpu.dcache.demand_mshr_hits::total      1487722                       # number of demand (read+write) MSHR hits
system.cpu.dcache.overall_mshr_hits::.cpu.data      1487722                       # number of overall MSHR hits
system.cpu.dcache.overall_mshr_hits::total      1487722                       # number of overall MSHR hits
system.cpu.dcache.demand_mshr_misses::.cpu.data      1487853                       # number of demand (read+write) MSHR misses
system.cpu.dcache.demand_mshr_misses::total      1487853                       # number of demand (read+write) MSHR misses
system.cpu.dcache.overall_mshr_misses::.cpu.data      1487869                       # number of overall MSHR misses
system.cpu.dcache.overall_mshr_misses::total      1487869                       # number of overall MSHR misses
system.cpu.dcache.demand_mshr_miss_latency::.cpu.data 121043390000                       # number of demand (read+write) MSHR miss cycles
system.cpu.dcache.demand_mshr_miss_latency::total 121043390000                       # number of demand (read+write) MSHR miss cycles
system.cpu.dcache.overall_mshr_miss_latency::.cpu.data 121044665000                       # number of overall MSHR miss cycles
system.cpu.dcache.overall_mshr_miss_latency::total 121044665000                       # number of overall MSHR miss cycles
system.cpu.dcache.demand_mshr_miss_rate::.cpu.data     0.030484                       # mshr miss rate for demand accesses
system.cpu.dcache.demand_mshr_miss_rate::total     0.030484                       # mshr miss rate for demand accesses
system.cpu.dcache.overall_mshr_miss_rate::.cpu.data     0.030485                       # mshr miss rate for overall accesses
system.cpu.dcache.overall_mshr_miss_rate::total     0.030485                       # mshr miss rate for overall accesses
system.cpu.dcache.demand_avg_mshr_miss_latency::.cpu.data 81354.401275                       # average overall mshr miss latency
system.cpu.dcache.demand_avg_mshr_miss_latency::total 81354.401275                       # average overall mshr miss latency
system.cpu.dcache.overall_avg_mshr_miss_latency::.cpu.data 81354.383350                       # average overall mshr miss latency
system.cpu.dcache.overall_avg_mshr_miss_latency::total 81354.383350                       # average overall mshr miss latency
system.cpu.dcache.replacements                1486844                       # number of replacements
system.cpu.dcache.ReadReq_hits::.cpu.data     35710295                       # number of ReadReq hits
system.cpu.dcache.ReadReq_hits::total        35710295                       # number of ReadReq hits
system.cpu.dcache.ReadReq_misses::.cpu.data          117                       # number of ReadReq misses
system.cpu.dcache.ReadReq_misses::total           117                       # number of ReadReq misses
system.cpu.dcache.ReadReq_miss_latency::.cpu.data      9099500                       # number of ReadReq miss cycles
system.cpu.dcache.ReadReq_miss_latency::total      9099500                       # number of ReadReq miss cycles
system.cpu.dcache.ReadReq_accesses::.cpu.data     35710412                       # number of ReadReq accesses(hits+misses)
system.cpu.dcache.ReadReq_accesses::total     35710412                       # number of ReadReq accesses(hits+misses)
system.cpu.dcache.ReadReq_miss_rate::.cpu.data     0.000003                       # miss rate for ReadReq accesses
system.cpu.dcache.ReadReq_miss_rate::total     0.000003                       # miss rate for ReadReq accesses
system.cpu.dcache.ReadReq_avg_miss_latency::.cpu.data 77773.504274                       # average ReadReq miss latency
system.cpu.dcache.ReadReq_avg_miss_latency::total 77773.504274                       # average ReadReq miss latency
system.cpu.dcache.ReadReq_mshr_hits::.cpu.data            5                       # number of ReadReq MSHR hits
system.cpu.dcache.ReadReq_mshr_hits::total            5                       # number of ReadReq MSHR hits
system.cpu.dcache.ReadReq_mshr_misses::.cpu.data          112                       # number of ReadReq MSHR misses
system.cpu.dcache.ReadReq_mshr_misses::total          112                       # number of ReadReq MSHR misses
system.cpu.dcache.ReadReq_mshr_miss_latency::.cpu.data      8567500                       # number of ReadReq MSHR miss cycles
system.cpu.dcache.ReadReq_mshr_miss_latency::total      8567500                       # number of ReadReq MSHR miss cycles
system.cpu.dcache.ReadReq_mshr_miss_rate::.cpu.data     0.000003                       # mshr miss rate for ReadReq accesses
system.cpu.dcache.ReadReq_mshr_miss_rate::total     0.000003                       # mshr miss rate for ReadReq accesses
system.cpu.dcache.ReadReq_avg_mshr_miss_latency::.cpu.data 76495.535714                       # average ReadReq mshr miss latency
system.cpu.dcache.ReadReq_avg_mshr_miss_latency::total 76495.535714                       # average ReadReq mshr miss latency
system.cpu.dcache.WriteReq_hits::.cpu.data     10121212                       # number of WriteReq hits
system.cpu.dcache.WriteReq_hits::total       10121212                       # number of WriteReq hits
system.cpu.dcache.WriteReq_misses::.cpu.data      2975458                       # number of WriteReq misses
system.cpu.dcache.WriteReq_misses::total      2975458                       # number of WriteReq misses
system.cpu.dcache.WriteReq_miss_latency::.cpu.data 237158386000                       # number of WriteReq miss cycles
system.cpu.dcache.WriteReq_miss_latency::total 237158386000                       # number of WriteReq miss cycles
system.cpu.dcache.WriteReq_accesses::.cpu.data     13096670                       # number of WriteReq accesses(hits+misses)
system.cpu.dcache.WriteReq_accesses::total     13096670                       # number of WriteReq accesses(hits+misses)
system.cpu.dcache.WriteReq_miss_rate::.cpu.data     0.227192                       # miss rate for WriteReq accesses
system.cpu.dcache.WriteReq_miss_rate::total     0.227192                       # miss rate for WriteReq accesses
system.cpu.dcache.WriteReq_avg_miss_latency::.cpu.data 79704.834012                       # average WriteReq miss latency
system.cpu.dcache.WriteReq_avg_miss_latency::total 79704.834012                       # average WriteReq miss latency
system.cpu.dcache.WriteReq_mshr_hits::.cpu.data      1487717                       # number of WriteReq MSHR hits
system.cpu.dcache.WriteReq_mshr_hits::total      1487717                       # number of WriteReq MSHR hits
system.cpu.dcache.WriteReq_mshr_misses::.cpu.data      1487741                       # number of WriteReq MSHR misses
system.cpu.dcache.WriteReq_mshr_misses::total      1487741                       # number of WriteReq MSHR misses
system.cpu.dcache.WriteReq_mshr_miss_latency::.cpu.data 121034822500                       # number of WriteReq MSHR miss cycles
system.cpu.dcache.WriteReq_mshr_miss_latency::total 121034822500                       # number of WriteReq MSHR miss cycles
system.cpu.dcache.WriteReq_mshr_miss_rate::.cpu.data     0.113597                       # mshr miss rate for WriteReq accesses
system.cpu.dcache.WriteReq_mshr_miss_rate::total     0.113597                       # mshr miss rate for WriteReq accesses
system.cpu.dcache.WriteReq_avg_mshr_miss_latency::.cpu.data 81354.767060                       # average WriteReq mshr miss latency
system.cpu.dcache.WriteReq_avg_mshr_miss_latency::total 81354.767060                       # average WriteReq mshr miss latency
system.cpu.dcache.SoftPFReq_hits::.cpu.data           32                       # number of SoftPFReq hits
system.cpu.dcache.SoftPFReq_hits::total            32                       # number of SoftPFReq hits
system.cpu.dcache.SoftPFReq_misses::.cpu.data           20                       # number of SoftPFReq misses
system.cpu.dcache.SoftPFReq_misses::total           20                       # number of SoftPFReq misses
system.cpu.dcache.SoftPFReq_accesses::.cpu.data           52                       # number of SoftPFReq accesses(hits+misses)
system.cpu.dcache.SoftPFReq_accesses::total           52                       # number of SoftPFReq accesses(hits+misses)
system.cpu.dcache.SoftPFReq_miss_rate::.cpu.data     0.384615                       # miss rate for SoftPFReq accesses
system.cpu.dcache.SoftPFReq_miss_rate::total     0.384615                       # miss rate for SoftPFReq accesses
system.cpu.dcache.SoftPFReq_mshr_misses::.cpu.data           16                       # number of SoftPFReq MSHR misses
system.cpu.dcache.SoftPFReq_mshr_misses::total           16                       # number of SoftPFReq MSHR misses
system.cpu.dcache.SoftPFReq_mshr_miss_latency::.cpu.data      1275000                       # number of SoftPFReq MSHR miss cycles
system.cpu.dcache.SoftPFReq_mshr_miss_latency::total      1275000                       # number of SoftPFReq MSHR miss cycles
system.cpu.dcache.SoftPFReq_mshr_miss_rate::.cpu.data     0.307692                       # mshr miss rate for SoftPFReq accesses
system.cpu.dcache.SoftPFReq_mshr_miss_rate::total     0.307692                       # mshr miss rate for SoftPFReq accesses
system.cpu.dcache.SoftPFReq_avg_mshr_miss_latency::.cpu.data 79687.500000                       # average SoftPFReq mshr miss latency
system.cpu.dcache.SoftPFReq_avg_mshr_miss_latency::total 79687.500000                       # average SoftPFReq mshr miss latency
system.cpu.dcache.LoadLockedReq_hits::.cpu.data           14                       # number of LoadLockedReq hits
system.cpu.dcache.LoadLockedReq_hits::total           14                       # number of LoadLockedReq hits
system.cpu.dcache.LoadLockedReq_accesses::.cpu.data           14                       # number of LoadLockedReq accesses(hits+misses)
system.cpu.dcache.LoadLockedReq_accesses::total           14                       # number of LoadLockedReq accesses(hits+misses)
system.cpu.dcache.StoreCondReq_hits::.cpu.data           14                       # number of StoreCondReq hits
system.cpu.dcache.StoreCondReq_hits::total           14                       # number of StoreCondReq hits
system.cpu.dcache.StoreCondReq_accesses::.cpu.data           14                       # number of StoreCondReq accesses(hits+misses)
system.cpu.dcache.StoreCondReq_accesses::total           14                       # number of StoreCondReq accesses(hits+misses)
system.cpu.dcache.tags.pwrStateResidencyTicks::UNDEFINED 174652525000                       # Cumulative time (in ticks) in various power states
system.cpu.dcache.tags.tagsinuse          1023.401979                       # Cycle average of tags in use
system.cpu.dcache.tags.total_refs            47319435                       # Total number of references to valid blocks.
system.cpu.dcache.tags.sampled_refs           1487868                       # Sample count of references to valid blocks.
system.cpu.dcache.tags.avg_refs             31.803517                       # Average number of references to valid blocks.
system.cpu.dcache.tags.warmup_cycle            176500                       # Cycle when the warmup percentage was hit.
system.cpu.dcache.tags.occ_blocks::.cpu.data  1023.401979                       # Average occupied blocks per requestor
system.cpu.dcache.tags.occ_percent::.cpu.data     0.999416                       # Average percentage of cache occupancy
system.cpu.dcache.tags.occ_percent::total     0.999416                       # Average percentage of cache occupancy
system.cpu.dcache.tags.occ_task_id_blocks::1024         1024                       # Occupied blocks per task id
system.cpu.dcache.tags.age_task_id_blocks_1024::0           86                       # Occupied blocks per task id
system.cpu.dcache.tags.age_task_id_blocks_1024::1          761                       # Occupied blocks per task id
system.cpu.dcache.tags.age_task_id_blocks_1024::2          175                       # Occupied blocks per task id
system.cpu.dcache.tags.age_task_id_blocks_1024::4            2                       # Occupied blocks per task id
system.cpu.dcache.tags.occ_task_id_percent::1024            1                       # Percentage of cache occupancy per task id
system.cpu.dcache.tags.tag_accesses          99102192                       # Number of tag accesses
system.cpu.dcache.tags.data_accesses         99102192                       # Number of data accesses
system.cpu.itb.walker.pwrStateResidencyTicks::UNDEFINED 174652525000                       # Cumulative time (in ticks) in various power states
system.cpu.itb.stage2_mmu.stage2_tlb.walker.pwrStateResidencyTicks::UNDEFINED 174652525000                       # Cumulative time (in ticks) in various power states

---------- End Simulation Statistics   ----------
